<?xml version="1.0" encoding="UTF-8"?>

<!-- 
Copyright (C) 2024 TOYOTA MOTOR CORPORATION. ALL RIGHTS RESERVED.
SPDX-License-Identifier: CC-BY-4.0
-->

<routes xmlns:xsi="http://www.w3.org/2001/XMLSchema-instance" xsi:noNamespaceSchemaLocation="http://sumo.dlr.de/xsd/routes_file.xsd">
<!-- begin="27000.0" end="28800.0" -->
    <vehicle id="225705" depart="27000.35" departLane="random" departPos="last" departSpeed="avg" insertionChecks="none">
        <route edges="-121055858 198401740#0 198401740#1 26926204#0 26926204#2 26926204#3 26926204#4 26926204#6 26926204#7 213148953#0 213148953#1 213148953#2 213148953#3 213148953#4 213148953#5 213148953#6 213148953#7 213148953#8 213148953#10 964210199#0 964210199#1 964210199#2 964210199#3 964210199#4 964210199#5 964210199#6 964210199#8 384646666#1 384646666#2 384646666#3 384646666#4 384646666#6 384646666#8 384646666#9 384646666#10 384646666#11 964210200#0 964210200#2 986658054 774634304#0 774634304#1 774634304#2 774634304#3 41955106#0 41955106#2 41955106#3 41955106#5 41955106#7 31513264#0 31513264#1 31513264#3 31513264#6 31513264#9 31513264#11 31513264#13 31513264#14 81048926#0 81048926#3 81048926#5 81048926#8 81048926#11 81048926#12 216493812#0 216493812#2 216493812#3 216493812#4 216493812#5 216493812#6 41231775#0 41231775#2 41231775#3 41231775#4 41231775#5 41231775#6 41231775#8 41231775#9 41231775#10 41231775#12 41231775#14 41231775#16 648464086#1 648464086#3 648464086#6 48208836 48798863#0 48798863#1 48798863#3 48798863#5 48798863#8 48798863#10 758633401#41 758633401#42 758633401#43 758633401#46 48208827#18 48208827#20 48208827#21 48208827#22 48208827#23 48208827#24 48208827#25 48208827#26 48208827#27 48208827#28 48208827#29 48208827#30 48208827#31 48208827#32 48208827#33 48208827#34 48208827#35 48208827#36 48208827#38 48208827#39 48208827#40 48208827#41 263487888#38 263487888#39 263487888#40 263487888#41 263487888#44 263487888#45 263487888#47 263487888#49 263487888#50 263487888#51 263487888#52 51492709#1 51492709#2 51492709#3 51492709#4"/>
    </vehicle>
    <vehicle id="225740" depart="27001.42" departLane="random" departPos="last" departSpeed="avg" insertionChecks="none">
        <route edges="-41422062#6 -41422062#2 -41422062#1 -41422062#0 -54990410 -226524099#11 -226524099#9 -226524099#7 -226524099#6 -226524099#5 -226524099#2 1160588194 1017359574#1 51499415#1 51499415#2 51499415#3 51499415#5 51499415#8 51499415#9 51499415#10 51499415#11 51499415#13 51499415#15 51499415#17 51499415#19 51499415#20 51499415#21 51499415#23 51499415#24 51499415#26 51499415#27 51499415#31 51499415#33 51499415#34 51499415#36 51499415#38 51499415#39 1160588193#1 1160588193#2 1160588193#6 1160588193#7 1160588193#8 1160588193#9 1160588193#10 1160588193#11 229140291#1 229140291#6 229140291#8 229140291#9 229140291#12 31513264#0 31513264#1 31513264#3 31513264#6 31513264#9 31513264#11 31513264#13 31513264#14 81048926#0 81048926#3 81048926#5 81048926#8 81048926#11 81048926#12 216493812#0 216493812#2 216493812#3 216493812#4 216493812#5 216493812#6 163165902#0 163165902#2 163165902#3 163165902#4 163165902#5 163165902#6 163165902#8 163165902#9 163165902#10 163165902#12 648456507#0 648456507#2 648456507#3 648456507#5 229140289#0 229140289#2 229140289#3 229140289#4 229140290#0 229140290#2 229140290#3 229140290#4 43647538#1 43647538#2 779233775#0 779233775#1 779233775#3 648456514#0 648456514#3 648456514#4 648456514#5 97344335#1 200375353#0 200375353#2 200375353#3 200375353#5 200375353#7 200375353#8 200375353#10 200375353#12 200375353#13 200375353#14 200375353#15 200375353#16 758633403#1 758633403#3 758633403#4 758633403#6 758633403#8 758633403#9 758633403#10 758633403#11 758633403#12 306803948#0 306803948#1 -758513889 970248766#1 970248766#3 970248767#2 970248767#4 970248767#5 970248767#6 970248771#1 970248771#3 970248771#5 970248771#7 970248771#8 970248771#9 970248772#0 970248772#1 970248772#2 970248772#3 970248772#4 970248773#2 970248774#1 970248774#2 970248775 199424318#0 199424318#2 199424318#3 199424318#4 199424318#5 199424318#6 199424318#7 199424318#8 199424318#9 199424318#11 970248779#1 970248779#2 970248779#4 970248779#6 -49189613#27 -49189613#26 -49189613#25 -49189613#24 -49189613#23 -49189613#22"/>
    </vehicle>
    <vehicle id="225812" depart="27004.03" departLane="random" departPos="last" departSpeed="avg" insertionChecks="none">
        <route edges="183687501 525062089 183680236#8 183680236#9 437844964#0 437844964#1 437844964#2 437844964#3 437844964#4 437844964#5 808598593#0 808598593#3 808598595#0 808598595#1 808598595#2 808598595#3 808598595#4 808598595#5 808598595#7 808598595#8 808598595#9 808598595#10 808598595#11 808598595#12 99445820#1 99445820#4 99445820#6 183680232#1 183680232#2 183680232#3 183680232#4 183680232#5 183680232#6 183680232#7 803698792#0 803698792#1 803698792#2 803698792#4 803698792#5 803698792#6 803698792#7 803698792#8 803698792#12 803698792#13 299766534#0 299766534#1 299766534#2 437892676#0 437892676#1 437892676#2 437892676#3 437892676#4 437892676#5 437892676#7 378760671#1 378760671#2 378760671#3 378760671#4 378760671#5 378760671#6 378760671#7 29241976#1 29241976#4 29241976#5 29241976#6 29241976#7 29241976#8 29241976#9 29241976#10 29241976#12 29241976#13 29241976#14 29241976#15 29241976#16 29241976#17 29241976#18 29241976#19 29241976#20 29241976#21 29241976#22 29241976#23 29241976#24 29241976#26 29241976#27 29241976#28 29241976#29 29241976#30 29241976#31 29241976#32 29241976#35 29241976#37 29241976#39 29241976#41 29241976#42 29241976#43 29241976#45 29241976#47 29241976#48 29241976#50 29241976#51 29241976#54 29241976#56 29241976#59 29241976#61 29241976#62 29241976#64 29241976#66 29241976#67 29241976#69 1042819573#0 1042819573#1 1042819573#2 1042819573#4 1042819573#7 1042819573#9 299766537#3 299766537#5 299766537#6 299766537#7 299766537#8 299766537#9 299766537#10 299766537#13 641820142#0 641820142#2 828689155#0 828689155#1 648464071#0 648464071#2 648464071#3 648464071#6 648464071#9 648424858#0 89231328#0 89231328#2"/>
    </vehicle>
    <vehicle id="225832" depart="27004.68" departLane="random" departPos="last" departSpeed="avg" insertionChecks="none">
        <route edges="-100568066#5 -100568066#3 -100568066#2 -100568066#1 -100568066#0 147617283#0 147617283#1 147617283#2 147617283#3 147617283#4 147617283#6 750493999#0 750493999#2 750493999#3 750493999#4 750493999#5 750493999#6 750493999#7 750493999#8 -144893851#2 -144893851#1 -144893851#0 -276479916#6 -276479916#3 -276479916#1 -276479916#0 -26214709#3 -26214709#2 -26214709#1 -26214709#0 -893758271 144900149#0 144894049#0 276479922#0 276479922#1 276479922#2 276479922#3 276479922#4 276479922#5 276479922#6 276479922#7 276479922#8 276479922#9 276479922#10 276479922#11 276479922#12 276479923#0 276479923#1 276479923#2 276479923#3 276479923#4 276479923#5 311076722#0 311076722#1 311076722#2 311076720#0 311076720#1 311076720#2 311076720#3 311076720#4 311076720#5 311076720#6 311076720#7 311076720#8 311076720#9 311076720#10 311076720#11 311076720#12 311076720#13 144894305#0 896197621 758522823#1 940877736#1 26213481#1 26213481#2 26213481#3 231167042#0 225540752 50365473#9 50365473#10 1160588193#2 1160588193#6 1160588193#7 1160588193#8 1160588193#9 1160588193#10 1160588193#11 229140291#1 229140291#6 229140291#8 229140291#9 229140291#12 31513264#0 31513264#1 31513264#3 31513264#6 31513264#9 31513264#11 31513264#13 31513264#14 81048926#0 81048926#3 81048926#5 81048926#8 81048926#11 81048926#12 216493812#0 216493812#2 216493812#3 216493812#4 216493812#5 216493812#6 163165902#0 163165902#2 163165902#3 163165902#4 163165902#5 163165902#6 163165902#8 163165902#9 163165902#10 163165902#12 648456507#0 648456507#2 648456507#3 648456507#5 229140289#0 229140289#2 229140289#3 229140289#4 229140290#0 229140290#2 229140290#3 229140290#4 43647538#1 43647538#2 779233775#0 779233775#1 779233775#3 648456514#0 648456514#3 648456514#4 648456514#5 31515314#1 31515314#3 31515314#4 31515314#5 31515314#6 31515314#8 31515314#9 31515314#10 648464114#0 648464114#1 648464114#2 648464114#3 648464114#4 779233778#0 779233778#1 779233778#2 918974408 918974411#1 1146469800 1146469802 31515329#0 31515329#1 31515329#2 31515329#3 648464120#0"/>
    </vehicle>
    <vehicle id="225877" depart="27006.03" departLane="random" departPos="last" departSpeed="avg" insertionChecks="none">
        <route edges="263487888#2 263487888#3 263487888#4 263487888#7 263487888#9 506611801#1 506611801#4 506611801#5 47576124#1 47576124#4 47576124#5 47576124#8 47576124#12 47576124#13 47576124#16 47576124#17 47576124#20 47576124#21 47576124#22 47576124#23 47576124#25 47576124#28 47576124#29 47576124#31 47576124#32 47576124#33 47576124#34 59079429#42 59079429#44 747491257#0 747491257#2 340288033#0 656884740#0 656884740#2 656884740#4 656884740#5 656884740#6 656884740#8 656884740#10 656884740#12 656884740#15 656884740#16 656884740#17 656884740#18 656884740#20 656884740#23 656884740#25 656884740#27 656884740#30 656884740#33 656884740#35 656884740#37 656884740#39 656884740#40 656884740#42 656884740#44 656884740#46 44354160#0 44354160#3 44354160#7 44354160#9 44354160#10 43648824#0 43648824#1 43648824#2 43648824#3 648464071#0 648464071#2 648464071#3 648464071#6 648464071#9 648424858#0 89231328#0 89231328#2 89231328#3 89231328#5 89231328#7 89231328#10 89231328#13 89231328#15 46978440#0 46978440#1 46978440#2 46978440#3 51817279 50365491#0 50365491#1 50365491#3 50365491#4 1035566857#0 1035566857#2 1035566857#3 1035566857#4 1035566857#5 1035566857#6 1035566857#8 1035566857#9 1035566857#11 1035566857#13 1035566857#14 1035566856#1 1035566856#2 1035566856#3 1035566856#4 1035566856#5 1035566856#6 1035566856#8 50365493#0 50365493#1"/>
    </vehicle>
    <vehicle id="225903" depart="27006.99" departLane="random" departPos="last" departSpeed="avg" insertionChecks="none">
        <route edges="648456503 842277777#0 842277777#1 842277777#2 842277777#3 842277777#4 648464071#0 648464071#2 648464071#3 648464071#6 648464071#9 648424858#0 89231328#0 89231328#2 89231328#3 89231328#5 89231328#7 89231328#10 89231328#13 89231328#15 46978440#0 46978440#1 46978440#2 46978440#3 51817279 50365491#0 50365491#1 50365491#3 50365491#4 47183320#1 47183320#3 47183320#4"/>
    </vehicle>
    <vehicle id="225921" depart="27007.44" departLane="random" departPos="last" departSpeed="avg" insertionChecks="none">
        <route edges="779233766#3 779233766#4 779233766#5 779233766#6 779233766#7 779233766#8 779233771#0 779233771#1 779233771#2 779233771#3 779233771#4 779233771#5 779233771#6 779233771#7 779233771#8 779233771#9 779233771#10 779233771#14 779233771#15 779233771#16 779233771#17 648456503 842277777#0 842277777#1 842277777#2 842277777#3 842277777#4 648464071#0 648464071#2 648464071#3 648464071#6 648464071#9 648424858#0 80227668#0 80227668#3 80227668#6 80227668#9 81048927#1 81048927#5"/>
    </vehicle>
    <vehicle id="225978" depart="27008.98" departLane="random" departPos="last" departSpeed="avg" insertionChecks="none">
        <route edges="889086219#0 889086219#2 889086219#3 889086219#4 889086219#5 889086219#6 889086219#8 54990401#32 54990401#34 54990401#35 54990401#36 54990401#37 54990401#38 774647777#0 774647777#2 774647777#3 774647777#4 774647777#6 50365486 50365484#0 50365484#1 50365484#2 50365484#3 50365484#4 31513264#0 31513264#1 31513264#3 31513264#6 31513264#9 31513264#11 31513264#13 31513264#14 81048926#0 81048926#3 81048926#5 81048926#8 81048926#11 81048926#12 216493812#0 216493812#2 216493812#3 216493812#4 216493812#5 216493812#6 163165902#0 163165902#2 163165902#3 163165902#4 163165902#5 163165902#6 163165902#8 163165902#9 163165902#10 163165902#12 648456507#0 648456507#2 648456507#3 648456507#5 229140279#1 229140279#3 229140279#4 303256276#0 303256276#2 303256279#0 303256279#1 303256279#2 303256279#4 667850672#3 667850671#1 667850671#2 667850671#5 667850667#0 667850667#1 667850667#2 667850667#3 645517347#1 645517347#2 667850666#0 667850665#0 667850665#1 667850665#2 667850665#3 667850665#4 667850665#5 667850665#6 667850665#7 667850664#0 667850664#1 667850663#1 667850663#2 667850663#3 667850663#4 667850662#1 667850662#2 405968835#2 405968835#3 405968835#4 667850661#0 667850661#1 667850659#1 667850656#0 667850656#1 667850656#2 667850656#3 667850656#4 667850656#5 667850656#6 667850655#2 667850654#1 667850654#2 667850654#4 667850654#5 667850653#0 667850653#1 667850652#0 667850652#2 667850652#3 667850652#4 753416154#1 667850651#1 667850651#2 667850651#3 100397221#1 100397221#2 100397221#4 667850646#1 667850647#1 667850647#2 667850732#1 667850732#3 667850731#1 667850731#2 667850742"/>
    </vehicle>
    <vehicle id="225998" depart="27009.45" departLane="random" departPos="last" departSpeed="avg" insertionChecks="none">
        <route edges="81048915#9 89231328#0 89231328#2 89231328#3 89231328#5 89231328#7 89231328#10 89231328#13 89231328#15 163165896#0 163165896#1 163165896#4 163165896#5 163165896#8 1160588192#1 1160588192#4 1160588192#5 1160588192#6 1160588192#8 1160588192#9 26213877#1 26213877#2 26213877#3 26213877#4 26213877#6 26213877#9 26213877#11 26213877#12 26213877#15 26213877#16 26213877#17 26213877#18 26213877#19 26213877#20 26213877#22 26213877#23 26213877#24 26213877#25 26213877#27 26213877#29 26213877#31 26213877#32 274251592#0 274251592#1 274251592#2 274251569#0 274251569#2 274251569#3 274251569#5 274251569#6 274251569#7 274251569#8 274251569#9 274251569#10 274251569#11 274251569#12 274251569#13 274251569#14 274251569#15 274251569#16 274251569#17 274251569#18 274251569#19 274251569#20 274251569#22 552283791#0 552283791#3 552283791#5 552283791#6 552283791#8 552283791#10 552283791#11 51541508#10 57359977#0 39661323#1 39661323#3 39661323#7 39661323#8 39661323#9 39661323#11 39661323#12 39661323#14 39661323#15 39661323#16 39661323#17 39661323#18 49478314#4 49478314#6 49478314#8 49478314#9 49478314#10 833393661#7 833393661#8 833393661#9 833393661#10 833393661#11"/>
    </vehicle>
    <vehicle id="226006" depart="27009.76" departLane="random" departPos="last" departSpeed="avg" insertionChecks="none">
        <route edges="186185958#4 186185958#7 667850681#0 667850681#3 80227672 80227670#0 667850685#1 667850685#4 667850684#2 667850583#2 80227668#0 80227668#3 80227668#6 80227668#9 81048927#1 81048927#5 81048927#7 81048927#10 80227671#0 80227671#2 80227671#5 980554536#0 977825111#0 977825111#3 996641678#0 996641678#3 996641678#7 996641678#12 99176328#0 99176328#2 99176328#4 99176328#6 99176328#8 99176328#9 99176328#10 99176328#12 425544441#13 378697704 1068062326 288587879"/>
    </vehicle>
    <vehicle id="226010" depart="27009.81" departLane="random" departPos="last" departSpeed="avg" insertionChecks="none">
        <route edges="667850622#2 667850681#0 667850681#3 80227672 80227670#0 667850685#1 667850685#4 667850684#2 667850583#2 80227668#0 80227668#3 80227668#6 80227668#9 81048927#1 81048927#5 81048927#7 81048927#10 80227671#0 80227671#2 80227671#5 980554536#0 977825111#0 977825111#3 50365476#4 50365476#6 50365476#7 50365476#9 50365476#11"/>
    </vehicle>
    <vehicle id="226020" depart="27010.30" departLane="random" departPos="last" departSpeed="avg" insertionChecks="none">
        <route edges="648464071#2 648464071#3 648464071#6 648464071#9 648424858#0 80227668#0 80227668#3 80227668#6 80227668#9 81048927#1 81048927#5 81048927#7 81048927#10 80227671#0 80227671#2 80227671#5 980554536#0 977825111#0 977825111#3 996641678#0 996641678#3 996641678#7 996641678#12 99176328#0 99176328#2 99176328#4 99176328#6 99176328#8 99176328#9 99176328#10 99176328#12 425544440#22 43210047#0 43210047#4"/>
    </vehicle>
    <vehicle id="226112" depart="27012.80" departLane="random" departPos="last" departSpeed="avg" insertionChecks="none">
        <route edges="186185958#4 186185958#7 667850681#0 667850681#3 80227672 80227670#0 667850685#1 667850685#4 667850684#2 667850583#2 80227668#0 80227668#3 80227668#6 80227668#9 81048927#1 81048927#5 81048927#7 81048927#10 80227671#0 80227671#2 80227671#5 980554536#0 977825111#0 977825111#3 996641678#0 996641678#3 996641678#7 996641678#12 99176328#0 99176328#2 99176328#4 99176328#6 99176328#8 99176328#9 99176328#10 99176328#12 304834982#1 304834982#3 304834982#5 304834982#6 304834982#8 304834982#10 304834982#11 304834982#14 749668248#0 749668248#2 183132259 183132265#0 1017359570 183132262 26160791#0 26160791#2 26160791#4 26160791#5 311076729#0 311076729#2 311076729#3 311076729#4 311076729#5 311076729#7 311076729#9 311076729#10 311076729#11 311076729#12 311076729#13 311076729#15 311076729#17 311076729#19 311076729#21 311076729#22 311076729#23 200532131#0"/>
    </vehicle>
    <vehicle id="226123" depart="27013.17" departLane="random" departPos="last" departSpeed="avg" insertionChecks="none">
        <route edges="274254830#50 274254830#54 274254830#57 274254830#61 274254830#62 42749317#0 42749317#2 42749317#5 42749317#8 42749317#11 42749317#13 42749317#15 43164508#0 43164508#4 43164508#7 43164508#10 81048915#0 81048915#3 81048915#6 81048915#9 667850585#0 648424856#2 648424856#5 667850687#2 79096453 1054658315#0 405968833#0 405968833#1 405968833#3"/>
    </vehicle>
    <vehicle id="226182" depart="27015.04" departLane="random" departPos="last" departSpeed="avg" insertionChecks="none">
        <route edges="-648202210#0 648202209#0 648202209#1 648202209#2 648202209#3 648202209#4 648202209#5 648202209#6 639674360#0 639674360#1 639674360#2 639674362#1 986647798#2 648474718#2 648474718#3 648474718#4 648474718#5 648474718#6 648474718#7 900324819 972706826#0 88222478 50071368#2 50071368#3 49131750#0 49131750#1 99148462 828688421 828689155#0 828689155#1 648464071#0 648464071#2 648464071#3 648464071#6 648464071#9 648424858#0 89231328#0 89231328#2 89231328#3 89231328#5 89231328#7 89231328#10 89231328#13 89231328#15 46978440#0 46978440#1 46978440#2 46978440#3 51817279 50365491#0 50365491#1 50365491#3 50365491#4 1035566857#0 1035566857#2 1035566857#3 1035566857#4 1035566857#5 1035566857#6 1035566857#8 1035566857#9 1035566857#11 1035566857#13 1035566857#14 648199241#0 587475519 48378603#1 48378603#3"/>
    </vehicle>
    <vehicle id="226208" depart="27015.65" departLane="random" departPos="last" departSpeed="avg" insertionChecks="none">
        <route edges="-200239781#53 -200239781#48 -200239781#47 -200239781#43 -200239781#41 -200239781#39 -200239781#35 -200239781#32 388180912#1 388180912#2 388180912#3 388180912#4 388180912#5 388180915#0 388180915#1 388180915#2 388180915#3 388180915#4 47295754#0 47295754#1 47295754#2 47295754#3 47295754#5 47295754#6 47295754#7 47295754#8 47295754#9 47295754#10 47295754#11 47295754#12 47295754#14 47295754#15 47295754#16 47295754#17 47295754#18 303010997#0 303010997#1 303010997#2 303010997#4 303010997#7 303010997#8 303010997#9 303010997#10 303010997#11 303010997#12 303010997#14 310476736#1 310476736#3 310476736#4 310476736#5 310476736#6 310476736#7 310476736#8 310476736#9 310476736#10 310476736#11 239288141#0 239288141#2 239288141#5 239288141#7 239288141#8 239288141#9 749537053#0 889086219#0 889086219#2 889086219#3 889086219#4 889086219#5 889086219#6 889086219#8 54990401#32 54990401#34 54990401#35 54990401#36 54990401#37 54990401#38 774647777#0 774647777#2 774647777#3 774647777#4 774647777#6 50365486 50365484#0 50365484#1 50365484#2 50365484#3 50365484#4 31513264#0 31513264#1 31513264#3 31513264#6 31513264#9 31513264#11 31513264#13 31513264#14 81048926#0 81048926#3 81048926#5 81048926#8 81048926#11 81048926#12 216493812#0 216493812#2 216493812#3 216493812#4 216493812#5 216493812#6 163165902#0 163165902#2 163165902#3 163165902#4 163165902#5 163165902#6 163165902#8 163165902#9 163165902#10 163165902#12 648456507#0 648456507#2 648456507#3 648456507#5 229140289#0 229140289#2 229140289#3 229140289#4 229140290#0 229140290#2 229140290#3 229140290#4 43647538#1 43647538#2 779233775#0 779233775#1 779233775#3 648456514#0 648456514#3 648456514#4 648456514#5 31515314#1 31515314#3 31515314#4 31515314#5 31515314#6 31515314#8 31515314#9 31515314#10 648464114#0 648464114#1 648464114#2 648464114#3 648464114#4 779233778#0 779233778#1 779233778#2 918974408 918974411#1 1146469800 1146469802 31515329#0 31515329#1 31515329#2 51816172#1 51816172#2 51816172#3 51816172#4 51816172#6 51816172#8 51816172#9 51816172#10 51816172#11 51816172#12 51816172#13 51816172#14 51816172#15 51816172#16"/>
    </vehicle>
    <vehicle id="226211" depart="27015.72" departLane="random" departPos="last" departSpeed="avg" insertionChecks="none">
        <route edges="274254830#0 274254830#4 274254830#6 274254830#8 274254830#10 274254830#12 274254830#15 274254830#17 274254830#18 274254830#19 274254830#22 274254830#24 274254830#26 274254830#28 274254830#30 274254830#32 274254830#33 274254830#35 274254830#38 274254830#39 274254830#40 274254830#41 274254830#45 274254830#47 274254830#50 274254830#54 274254830#57 274254830#61 274254830#62 42749317#0 42749317#2 42749317#5 42749317#8 42749317#11 42749317#13 42749317#15 43164508#0 43164508#4 43164508#7 43164508#10 81048915#0 81048915#3 81048915#6 81048915#9 667850585#0 648424856#2 648424856#5 667850687#2 79096453 1054658315#0 405968833#0 405968833#1 405968833#3 80227669#0 80227669#5 80227669#11 80227669#13 828700666#6 828700666#8 1147974332#0 1147974332#2 1147974332#4 1147974332#5 1147974332#7 1147974332#9 1147974332#11 1147974332#12 1147974332#13 1147974332#14"/>
    </vehicle>
    <vehicle id="226212" depart="27015.78" departLane="random" departPos="last" departSpeed="avg" insertionChecks="none">
        <route edges="100397198#12 26925084 304370788#0 304370788#1 304370788#2 779233766#0 779233766#1 779233766#2 779233766#3 779233766#4 779233766#5 779233766#6 779233766#7 779233766#8 779233771#0 779233771#1 779233771#2 779233771#3 779233771#4 779233771#5 779233771#6 779233771#7 779233771#8 779233771#9 779233771#10 779233771#14 779233771#15 779233771#16 779233771#17 648456503 842277777#0 842277777#1 842277777#2 842277777#3 842277777#4 648464071#0 648464071#2 648464071#3 648464071#6 648464071#9 648424858#0 80227668#0 80227668#3 80227668#6 80227668#9 81048927#1 81048927#5 81048927#7 81048927#10 80227671#0 80227671#2 80227671#5 980554536#0 977825111#0 977825111#3 996641678#0 996641678#3 996641678#7 996641678#12 99176328#0 99176328#2 99176328#4 99176328#6 99176328#8 99176328#9 99176328#10 99176328#12 304834982#1 304834982#3 304834982#5 304834982#6 304834982#8 304834982#10 304834982#11 304834982#14 749668248#0 749668248#2 183132259 183132265#0 1017359570 183132262 26160791#0 26160791#2 26160791#4 26160791#5 311076727#3 310480087#1 310480087#2 310480087#3 310480087#5 310480082 310480086#1 310480086#2 310480086#3 310480086#4 310480086#5 310480086#6 310480086#7 29241976#35 29241976#37 29241976#39 29241976#41 29241976#42 29241976#43 29241976#45 29241976#47"/>
    </vehicle>
    <vehicle id="226249" depart="27016.96" departLane="random" departPos="last" departSpeed="avg" insertionChecks="none">
        <route edges="235402848#0 235402848#1 235402848#2 235402848#3 940877736#0 940877736#1 26213481#1 26213481#2 26213481#3 231167042#0 225540752 50365473#9 50365473#10 1160588193#2 1160588193#6 1160588193#7 1160588193#8 1160588193#9 1160588193#10 1160588193#11 229140291#1 51817278#11 51817278#14 51817278#15 51817278#16 51817278#17 51817278#18 51817278#19 51817278#21 81048915#0 81048915#3 81048915#6 81048915#9 89231328#0 89231328#2 89231328#3"/>
    </vehicle>
    <vehicle id="226250" depart="27016.98" departLane="random" departPos="last" departSpeed="avg" insertionChecks="none">
        <route edges="160011250 47300937#1 836767957 50224250 50224242#2 50224242#3 524796726 129929719 567375746 50226539#0 50226539#1 50226539#2 50226539#3 50226537 199426326 43647541#4 43647541#5 747491257#0 747491257#2 340288033#0 656884740#0 656884740#2 656884740#4 656884740#5 656884740#6 656884740#8 656884740#10 656884740#12 656884740#15 656884740#16 656884740#17 656884740#18 656884740#20 656884740#23 656884740#25 656884740#27 656884740#30 656884740#33 656884740#35 656884740#37 656884740#39 656884740#40 656884740#42 656884740#44 656884740#46 44354160#0 44354160#3 44354160#7 44354160#9 44354160#10 43648824#0 43648824#1 43648824#2 43648824#3 648464071#0 648464071#2 648464071#3 648464071#6 648464071#9 648424858#0 89231328#0 89231328#2 89231328#3 89231328#5 89231328#7 89231328#10 89231328#13 89231328#15 163165910#0 163165910#1 163165910#3 163165910#5 163165910#6 163165910#7 46978454#1 46978454#3 46978454#5 50827341 1035566855#2 1035566855#4 1035566855#5 1035566855#6 1035566855#7 1035566855#9 50365471#0 50365471#1 50365471#2 50365471#3 50365471#4 50365471#6 50365471#8 50365471#9 50365471#10 50365471#11 50365471#12 50365471#13 50365471#14 986658055#0 986658055#1 976806606#0 388180904#0 388180904#3 388180904#5 388180904#6 388180904#7 388180904#9 388180910#0 388180910#1 388180910#2 388180910#5 310476727#0 310476727#1 310476727#2 388180906#0 388180906#1 388180906#2 388180906#5 388180906#6 388180906#7 388180906#9 388180906#10 388180906#11 388180906#12 388180906#13 388180909#0 388180909#1 388180909#2 310476726#0 310476726#1"/>
    </vehicle>
    <vehicle id="226384" depart="27021.32" departLane="random" departPos="last" departSpeed="avg" insertionChecks="none">
        <route edges="115487383 388180905#1 961596453#0 961596453#1 198748412#0 198748412#1 198748412#3 198748412#4 198748412#5 198748412#6 198748412#7 198748412#8 198748412#9 198748412#10 198748412#11 198748412#12 388180907#0 388180907#1 388180908 388180911#0 388180911#1 388180911#3 388180911#4 388180911#6 388180903#0 388180903#1 388180903#2 388180903#3 388180903#6 976806605#0 51080881#1 51080881#2 51080881#3 51080881#4 51080881#5 51080881#6 971295527#1 303011011#0 303011011#1 43692529 47183319#0 47183319#1 47183319#2 47183319#3 47183319#5 47183319#6 774647777#0 774647777#2 774647777#3 774647777#4 774647777#6 50365486 50365484#0 50365484#1 50365484#2 50365484#3 50365484#4 31513264#0 31513264#1 31513264#3 31513264#6 31513264#9 31513264#11 31513264#13 31513264#14 667850585#0 648424856#2 648424856#5"/>
    </vehicle>
    <vehicle id="226413" depart="27022.28" departLane="random" departPos="last" departSpeed="avg" insertionChecks="none">
        <route edges="437718725#1 437718725#2 378643035 587475518 200239779#8 200239779#9 1035566856#1 1035566856#2 1035566856#3 1035566856#4 1035566856#5 1035566856#6 1035566856#8 50365493#0 50365493#1 41955106#0 41955106#2 41955106#3 41955106#5 41955106#7 31513264#0 31513264#1 31513264#3 31513264#6 31513264#9 31513264#11 31513264#13 31513264#14 81048926#0 81048926#3 81048926#5 81048926#8 81048926#11 81048926#12 216493812#0 216493812#2 216493812#3 216493812#4 216493812#5 216493812#6 43648828#0 43648828#2 43648828#3 43648828#4 43648828#7 43648828#11 -656884740#47 -656884740#44 -656884740#43 -656884740#41 -656884740#39 -656884740#38 -656884740#36 -656884740#34 -656884740#32 -656884740#28 -656884740#25 -656884740#24 -656884740#22 -656884740#19 -656884740#17 -656884740#16 -656884740#15 -656884740#13 -656884740#11 -656884740#9 -656884740#7 -656884740#5 -656884740#4 -656884740#3 -656884740#1 44354133#0 44354133#2 747491252#0 747491252#2 747491252#3 747488554#1 747488554#3 747488554#4 747488554#5 747488554#6 747488554#7 747488554#8 747488554#9 747488554#10 747488554#11 747488554#12 747488554#13 747488554#14 747484433#1 747484433#2 747484433#4 747481953#0 747481953#1 747481953#2 747481953#3 747481953#4 747481034#0 747481028#0 747481028#1 747481028#2 747481028#3 747481028#4 747481028#5 747481028#6 747481028#7 747481028#8 747481028#9 747481028#10 747481028#11 747481028#12 747481028#16 747481028#17 747481028#18 462268288#0 462268288#1 122790407#0 608793059#0 608793059#1 608793059#2 608793059#3 608793059#4 608793059#5 608793059#6 608793059#8 608793059#9 608793059#10 608793059#11 608793059#12 608793059#13 608793059#14 608793059#15 608793059#17 608793059#18 608793059#19 608793059#20 608793059#21 608793059#23 608793059#24 608793059#25 379353069#0 379353069#1 48948675#2 48948675#3 48948675#6 48948675#8 48948675#10 48948675#12 200424275#0 200424275#2 200424275#3 200424275#4 200424275#5 200424275#6 200424275#7 200424275#8 200424275#9 200424275#10 200424275#11 200424275#12 200424275#13 200424275#14"/>
    </vehicle>
    <vehicle id="226417" depart="27022.41" departLane="random" departPos="last" departSpeed="avg" insertionChecks="none">
        <route edges="1026598864#0 972225540#1 972225540#2 26926202#2 26926202#4 26926202#6 26926202#8 774634304#0 774634304#1 774634304#2 774634304#3 41955106#0 41955106#2 41955106#3 41955106#5 41955106#7 31513264#0 31513264#1 31513264#3 31513264#6 31513264#9 31513264#11 31513264#13 31513264#14 81048926#0 81048926#3 81048916#1 81048916#4 648464053#0 690172400#0 37077196#0 37077196#3 641820145#0 648464060#0 828694659#0 99448892 1069176995#1 80515435 970420622#0 685691681#1 50226543#1 50226540 53004953#1 437893392 307764064 75869546#13 75869546#14 75869546#15 75869546#16 313707987#0 313707987#1 313707987#2 313707987#3 313707987#4 313707987#5 770591448#1 672006438 915816410#1 915816410#2 432384640#0"/>
    </vehicle>
    <vehicle id="226423" depart="27022.65" departLane="random" departPos="last" departSpeed="avg" insertionChecks="none">