<?xml version="1.0" encoding="UTF-8"?>
    
    
    
<routes xmlns:xsi="http://www.w3.org/2001/XMLSchema-instance" xsi:noNamespaceSchemaLocation="http://sumo.dlr.de/xsd/routes_file.xsd">    
    
    <vehicle id="284476" depart="28800.11" departLane="random" departPos="last" departSpeed="avg" insertionChecks="none">
        <route edges="379649109#0 379649109#2 169235729#0 242184540 721572689#1 721526375#1 99358416 567375746 50226539#0 50226539#1 50226539#2 50226539#3 50226537 199426329#1 378668896 1043611561#5 1043611560#0 1043611560#1 1043611560#3 1043611560#5 1043611560#6 1043611560#7 1043611560#8 1043611560#11 1043611560#14 980139635#0 980139635#2 299766537#3 299766537#5 299766537#6 299766537#7 299766537#8 299766537#9 299766537#10 299766537#13 641820142#0 641820142#2 828689155#0 828689155#1 648464071#0 648464071#2 648464071#3 648464071#6 648464071#9 648424858#0 667850585#0 648424856#2 648424856#5 667850687#2 48504769#5 48504769#7 48504769#8 48504769#9 48504769#12 48504769#15 48504769#16 48504769#17 41955106#0 41955106#2 41955106#3 41955106#5 41955106#7"/>
    </vehicle>
    
    
    
    
    
    
    
    
    <vehicle id="284485" depart="28800.34" departLane="random" departPos="last" departSpeed="avg" insertionChecks="none">
        <route edges="43210047#0 43210047#4 43210047#6 43210047#7 43210047#8 43210047#9 1000507017 1000507015#0 1000507015#2 1000507015#3 996641679#0 274254830#45 274254830#47 274254830#50 274254830#54 274254830#57 274254830#61 274254830#62 42749317#0 42749317#2 42749317#5 42749317#8 42749317#11 42749317#13 42749317#15 43164508#0 43164508#4 43164508#7 43164508#10 81048915#0 81048915#3 81048915#6 81048915#9 667850585#0 648424856#2 648424856#5 667850687#2 79096453 1054658315#0 405968833#0 405968833#1 405968833#3 80227669#0 80227669#5 80227669#11 80227669#13 1147974331#5 1147974331#7 1147974331#8 1147974331#9 1147974331#10 1147974331#12 1147974331#13 1147974331#14 1147974331#15 1147974331#16"/>
    </vehicle>
    
    
    
    
    
    
    
    
    
    <vehicle id="284495" depart="28800.67" departLane="random" departPos="last" departSpeed="avg" insertionChecks="none">
        <route edges="667850685#4 667850684#2 667850583#2 81048926#0 81048926#3 81048926#5 81048926#8 81048926#11 81048926#12 648464075#0 648464075#2 648464075#3 828689152#0 828689152#1 828689152#2 641820145#0 648464060#0 648464060#2 648464060#3 828694663 828694662#0 828694662#1 828694662#2 828694662#3 1000454976#3 1000454976#5 1000454976#7 1000454979#0 299766538#0 299766538#2 1042819571 737262857#2 737262857#3 737262857#5 737262857#7 737262857#8 737262857#11 737262857#13 737262857#14 737262857#16 737262857#18 737262857#20 737262857#21 737262857#23 737262857#24 737262857#26 737262857#28 737262857#29 737262857#31 737262857#33 396529519#0 396529519#2 396529519#3 396529519#4 396529519#5 396529519#6 396529519#7 396529519#8 396529519#9 396529519#10 396529526#1 396529526#2 396529526#3 396529526#4 396529526#5 396529520#0 396529520#1 396529520#2 396529520#3 396529520#4 396529520#5 396529520#6 396529520#7 396529520#8 396529520#9 396529520#10 396529520#11 396529520#12 396529520#13 396529525#1 378760670#0 378760670#1 378760670#2 378760670#4 378760670#5 48890348#1 48890348#4 48890348#5 48890348#6 48890348#7 48890348#8 48890348#9 48890348#10 48890348#11 48890348#12 48890348#13 299766535#0 299766535#1 299766535#2 299766535#4 299766535#5 299766535#6 299766535#7 299766535#8 299766535#9 299766535#10 299766535#11 299766535#12 299766535#13 299766533#0 299766533#1 299766533#2 299766533#3 299766533#4 299766533#5 299766533#6 183680233#2 183680234#1 183680234#4 -808598595#12 67029918#0 67029918#1 67029918#2 67029918#3 67029918#4 67029918#5 67029918#6 67029918#7 67029918#8 67029918#9 67029918#10 67029918#11 67029918#12 67029918#14 67029918#15 67029918#16 -80850546#3 -80850546#1 -80850546#0 44783993#1 44783993#2 44783993#3 44783993#4 44783993#6 44783993#7 44783993#8 44783993#9 44783993#10 44783993#12 44783993#14 44783993#15 44783993#16 183680246#3 183680246#4 183680246#5 183680246#6 183680246#7 183680246#8 1054357915#0 1054357915#1 -762870202#6 -762870202#4 -762870202#3 -762870202#2 -762870202#1"/>
    </vehicle>
    
    
    
    
    
    
    
    
    
    
    
    
    
    
    
    
    
    
    
    
    
    
    
    
    
    
    
    
    
    
    
    
    
    
    
    
    
    
    
    
    
    
    
    
    
    
    
    
    
    
    
    
    
    
    
    
    
    
    
    
    
    
    
    
    
    
    
    
    
    
    
    
    
    
    <vehicle id="284570" depart="28803.27" departLane="random" departPos="last" departSpeed="avg" insertionChecks="none">
        <route edges="186185958#7 667850681#0 667850681#3 80227672 80227670#0 667850685#1 667850685#4 667850684#2 667850583#2 89231328#0 89231328#2 89231328#3 89231328#5 89231328#7 89231328#10 89231328#13 89231328#15 46978440#0 46978440#1 46978440#2 46978440#3 51817279 50365491#0 50365491#1 50365491#3 50365491#4 47183320#1 47183320#3 47183320#4 47183320#6 47183320#7 303010993 47183325#0 47183325#1"/>
    </vehicle>
    
    
    
    
    
    
    
    
    
    
    
    
    
    
    
    
    
    
    
    
    
    
    
    
    
    
    
    
    
    
    
    
    
    
    
    
    
    
    
    
    
    
    
    
    
    
    
    
    
    
    
    
    
    
    
    
    
    
    
    
    
    <vehicle id="284632" depart="28805.32" departLane="random" departPos="last" departSpeed="avg" insertionChecks="none">
        <route edges="758633400#0 758633400#1 758633400#2 244655611#0 244655611#3 244655611#4 244655611#5 244655611#6 244655611#8 946535865#0 946535865#1 946535865#3 946535865#4 307092993#1 307092993#2 307092993#3 307092993#4 307092993#5 307092993#6 307092993#7 307092993#8 307092993#9 307092993#10 307092993#11 1126965190#0 1126965190#1 1126965190#2 1126965189#0 1126965189#1 1126965189#2 946037285#2 946037285#3 946037285#4 946037285#5 946037285#6 946037285#7 946037285#9 946037285#11 946037285#12 946037285#14 946037285#15 946037285#16 796879780#0 796879780#3 796879780#5 796879780#6 796879780#7 796879780#8 796879780#9 796879780#10 796879780#11 796879780#12 796879780#13 796879780#14 796879780#15 796879780#19 796879780#21 307091505#1 44639110#0 44639110#1 44639110#2 44639110#3 44639110#4 44639110#5 307091503#1 307091503#2 753189678#1 753189678#2 753189678#3 753189678#4 753189678#5 177129749#0 177129749#1 177129749#2 177129749#3 177129749#4 177129749#5 177129749#6 177129749#7 177129749#8 177129749#9 177129749#10 177129749#12 -648464127#6 -648464127#5 -648464127#4 -648464127#3 -648464127#2 -648464127#1 -31515353#2 -31515353#0 -648464125#8 -648464125#7 -648464125#6 -648464125#5 -648464125#4 -648464125#3 -648464125#2 -648464125#1 -648464125#0 648464122#0 648464122#1 648464122#2 648464122#3 648464122#4 648464122#5 648464122#7 648464122#8 43644765 918974410#1 43644768#0 43644768#1 43644768#2 642209358#0 642209358#1 642209358#2 306494177 648464116#0 648464116#1 648464116#2 648464116#3 648464116#5 648464116#6 648464116#7 163165909#0 163165909#2 163165909#3 163165909#4 163165909#7 648456517#0 779233774#0 779233774#2 31515312#1 31515309#1 26225217#0 26225217#2 26225217#3 26225217#4 31515307#0 31515307#2 31515307#3 31515307#5 31515307#6 31515307#7 31515307#8 648456510#0 648456510#3 648456510#5 648456510#6 648456510#7 43648824#0 43648824#1 43648824#2 43648824#3 648464071#0 648464071#2 648464071#3 648464071#6 648464071#9 648424858#0 89231328#0 89231328#2 89231328#3 89231328#5 89231328#7 89231328#10 89231328#13 89231328#15 46978440#0 46978440#1 46978440#2 46978440#3 51817279 50365491#0 50365491#1 50365491#3 50365491#4 648199242#0 648199242#2 648199242#3 648199242#4 648199242#7 648199242#9 648199242#10 47174925#8 47174925#11 47174925#14 47174925#16 889085344#0 889085344#2 889085344#5 889085344#6 889085344#7 889085344#9 889085344#10 889085344#11 229143248#0 229143248#2 229143248#4 229143248#5 229143248#6 229143248#7 229143248#8 229143248#9 229143248#11 961596466#0 961596466#1 961596466#2 961596466#3 961596466#4 310476722#0 310476722#1 310476722#2 310476722#3 310476722#4 310476722#5 310476722#6 310476722#8 961596465 162156180 230309651#0 230309651#1 230309651#2 230309651#3 47122743#0 47122743#1 47122743#2 47122743#3 47122743#5 47122743#7 47122743#8 47122743#9 47122743#11 47122743#12 47122743#13 100287323#0 100287323#1 100287323#2 100287323#4 100287323#5 100287323#6 100287323#7 100287323#9 100287323#10 100287323#12 100287323#13 100287323#14 100287323#15 100287323#17 100287323#18 100287323#19 100287323#20 100287323#22 379862265#0 379862265#1 379862265#2 100571338#0 100571338#1 100571338#2 100571338#3 100571338#7 100571338#8 100571338#10 100571338#11 100571338#12 303011014#0 303011014#1"/>
    </vehicle>
    
    
    
    
    
    
    
    
    
    
    
    
    
    
    
    
    
    
    
    
    
    
    
    
    
    
    
    
    
    
    
    
    
    
    
    
    
    
    
    
    
    
    
    
    
    
    
    
    
    
    
    
    
    
    
    
    
    
    
    
    
    
    
    
    
    
    
    
    
    
    
    
    
    
    
    
    
    
    
    
    
    
    
    
    
    
    
    
    
    
    
    
    
    
    
    
    <vehicle id="284729" depart="28808.38" departLane="random" departPos="last" departSpeed="avg" insertionChecks="none">
        <route edges="144894308#3 144894308#6 144894308#7 144894308#8 -801956396#39 -801956396#37 -801956396#33 -801956396#30 -801956396#29 -801956396#26 -801956396#25 242310120#9 242311262#1 242311262#2 242311254#0 242311254#1 242311254#2 242311254#3 242311254#4 242311254#5 242311254#6 242311253#1 242311258#0 242311258#1 242311258#2 242311258#3 242311258#4 100288860#28 100288860#29 100288860#31 100288860#33 100288860#34 -100571337#3 -100571337#1 -100571337#0 -144860848#5 -144860848#3 -144860848#1 -144860848#0 -100287323#28 -100287323#27 -100287323#26 -100287323#25 -100287323#24 -100287323#22 -100287323#20 -100287323#19 -100287323#18 -100287323#17 -100287323#15 -100287323#14 -100287323#13 -100287323#12 -100287323#10 -100287323#9 -100287323#7 -100287323#6 -100287323#5 -100287323#4 -100287323#2 -100287323#1 -100287323#0 -47122743#13 -47122743#12 -47122743#11 -47122743#10 -47122743#8 -47122743#7 -47122743#5 -47122743#3 -47122743#2 -47122743#1 -47122743#0 303011002#0 303011002#1 303011002#2 303011002#3 961596459 100399940 139253137#0 139253137#1 139253137#2 139253137#3 139253137#4 139253137#5 139253137#6 139253137#7 139253137#8 961596457#0 961596457#1 961596457#2 961596457#3 961596457#5 310476736#1 310476736#3 310476736#4 310476736#5 310476736#6 310476736#7 310476736#8 310476736#9 310476736#10 310476736#11 239288141#0 239288141#2 239288141#5 239288141#7 239288141#8 239288141#9 889085343#0 889085343#2 889085343#4 889085343#7 889085343#9 54990401#27 54990401#29 54990401#32 54990401#34 54990401#35 54990401#36 54990401#37 54990401#38 774647777#0 774647777#2 774647777#3 774647777#4 774647777#6 50365486 50365484#0 50365484#1 50365484#2 50365484#3 50365484#4 31513264#0 31513264#1 31513264#3 31513264#6 31513264#9 31513264#11 31513264#13 31513264#14 81048926#0 81048926#3 81048926#5 81048926#8 81048926#11 81048926#12 216493812#0 216493812#2 216493812#3 216493812#4 216493812#5 216493812#6 163165902#0 163165902#2 163165902#3 163165902#4 163165902#5 163165902#6 163165902#8 163165902#9 163165902#10 163165902#12 648456507#0 648456507#2 648456507#3 648456507#5 229140279#1 229140279#3 229140279#4 303256276#0 303256276#2 303256279#0 303256279#1 303256279#2 303256279#4 648464092#26 648464092#28"/>
    </vehicle>
    
    
    
    
    
    
    
    
    
    
    
    
    
    
    
    
    
    
    
    
    
    
    
    
    
    
    
    
    
    
    
    
    
    
    
    
    
    
    
    
    
    
    
    
    
    
    
    
    
    
    
    
    
    
    <vehicle id="284784" depart="28810.13" departLane="random" departPos="last" departSpeed="avg" insertionChecks="none">
        <route edges="779233771#16 779233771#17 648456503 842277777#0 842277777#1 842277777#2 842277777#3 842277777#4 648464071#0 648464071#2 648464071#3 648464071#6 648464071#9 648424858#0 89231328#0 89231328#2 89231328#3 89231328#5 89231328#7 89231328#10 89231328#13 89231328#15 46978440#0 46978440#1 46978440#2 46978440#3 51817279 50365491#0 50365491#1 50365491#3 50365491#4 47183320#1 47183320#3 47183320#4 47183320#6 47183320#7 303010993 303010992 43692517 30334697 43692529 47183319#0 47183319#1 47183319#2 47183319#3"/>
    </vehicle>
    
    
    
    
    
    
    
    
    
    
    
    
    
    
    
    
    
    
    <vehicle id="284803" depart="28810.94" departLane="random" departPos="last" departSpeed="avg" insertionChecks="none">
        <route edges="1147974331#0 1147974331#2 641820150#13 186185958#1 186185958#2 186185958#4 186185958#7 667850681#0 667850681#3 80227672 80227670#0 667850685#1 667850685#4 667850684#2 667850583#2 80227668#0 80227668#3 80227668#6 80227668#9 81048927#1 81048927#5 81048927#7 81048927#10 80227671#0 80227671#2 80227671#5 980554536#0 977825111#0 977825111#3 996641678#0 996641678#3 996641678#7 996641678#12 99176328#0 99176328#2 99176328#4 99176328#6 99176328#8 99176328#9 99176328#10 99176328#12 425544441#13 378697704 1068062326 833392258#0 833392258#1 833392258#2 833392258#3 833392258#4 833392258#5 833392258#6"/>
    </vehicle>
    
    
    
    
    
    
    
    
    
    
    
    
    
    
    
    
    
    
    
    
    
    
    
    
    
    
    
    
    
    
    
    
    
    
    
    
    
    
    
    
    
    
    
    
    
    
    
    
    
    
    
    
    
    
    
    
    
    
    
    
    
    
    
    
    
    
    
    
    
    
    
    
    
    
    
    
    
    
    
    
    
    
    
    
    
    
    
    
    
    
    
    
    
    
    
    
    
    
    
    
    
    
    
    
    
    
    
    
    <vehicle id="284912" depart="28813.87" departLane="random" departPos="last" departSpeed="avg" insertionChecks="none">
        <route edges="310525922#0 310525922#1 1164786444 138120155#0 138120155#1 138120155#2 138120155#3 138120155#4 388180903#6 976806605#0 986658056#0 986658056#1 186151401#0 186151401#1 186151401#2 186151401#3 186151401#4 186151401#5 186151401#8 186151401#9 186151401#10 1035566856#1 1035566856#2 1035566856#3 1035566856#4 1035566856#5 1035566856#6 1035566856#8 50365493#0 50365493#1 43210050#0 43210050#4 667850685#1 667850685#4 667850684#2 667850583#2 80227668#0 80227668#3 80227668#6 80227668#9 81048927#1 81048927#5 81048927#7 81048927#10"/>
    </vehicle>
    
    
    
    
    
    
    
    
    
    
    
    
    
    
    
    
    
    
    
    
    
    
    
    
    
    
    
    
    
    
    
    
    
    
    
    
    
    
    
    
    
    <vehicle id="284954" depart="28815.41" departLane="random" departPos="last" departSpeed="avg" insertionChecks="none">
        <route edges="81048915#9 667850585#0 648424856#2 648424856#5 667850687#2 79096453 1054658315#0 405968833#0 405968833#1 405968833#3 80227669#0 80227669#5 80227669#11 80227669#13 1147974331#5 1147974331#7 1147974331#8 1147974331#9 1147974331#10"/>
    </vehicle>
    
    
    <vehicle id="284957" depart="28815.45" departLane="random" departPos="last" departSpeed="avg" insertionChecks="none">
        <route edges="229140284#6 986658056#0 986658056#1 186151401#0 186151401#1 186151401#2 186151401#3 186151401#4 186151401#5 186151401#8 186151401#9 186151401#10 1035566856#1 1035566856#2 1035566856#3 1035566856#4 1035566856#5 1035566856#6 1035566856#8 50365493#0 50365493#1 43210050#0 43210050#4 667850685#1 667850685#4 667850684#2 667850583#2 89231328#0 89231328#2 89231328#3"/>
    </vehicle>
    
    
    
    <vehicle id="284961" depart="28815.54" departLane="random" departPos="last" departSpeed="avg" insertionChecks="none">
        <route edges="44354160#7 44354160#9 44354160#10 43648824#0 43648824#1 43648824#2 43648824#3 648464071#0 648464071#2 648464071#3 648464071#6 648464071#9 648424858#0 89231328#0 89231328#2 89231328#3 89231328#5 89231328#7 89231328#10 89231328#13 89231328#15 163165910#0 163165910#1 163165910#3 163165910#5 163165910#6 163165910#7 79629968#0 26926203#0 26926203#1 964210197#1 50827349#0 50827349#1 50827349#2 50827349#3 50827349#6 50827349#7 50827349#8 50827349#9 964210198#2 964210198#3 964210198#4 964210198#5 964210198#6 964210198#7 964210198#8 384646667#0 384646667#1 384646667#2 384646667#3 384646667#4 384646667#5 384646667#6 384646667#7 198401745#0 198401745#1 198401745#3 198401745#5 198401745#6 198401745#7 198401745#8 198401745#9 198401745#10 977099627#0 977099627#2 977099627#3 977099627#4 310476718#0 310476718#2 310476718#3 388180898#0 388180898#1 388180898#2 388180897#1 388180897#2 388180897#3 388180897#4 388180897#5 388180897#6 388180897#7 388180897#8 388180897#9 388180897#10 388180897#11 388180897#12 388180897#13 388180897#14 388180897#15 388180897#16 388180897#17 388180897#18 388180897#19 388180897#21 388180897#22 388180897#23"/>
    </vehicle>
    
    
    
    
    
    <vehicle id="284967" depart="28815.66" departLane="random" departPos="last" departSpeed="avg" insertionChecks="none">
        <route edges="115487383 388180905#1 961596453#0 961596453#1 198748412#0 198748412#1 198748412#3 198748412#4 198748412#5 198748412#6 198748412#7 198748412#8 198748412#9 198748412#10 198748412#11 198748412#12 388180907#0 388180907#1 388180908 388180911#0 388180911#1 388180911#3 388180911#4 388180911#6 388180903#0 388180903#1 388180903#2 388180903#3 388180903#6 976806605#0 986658056#0 986658056#1 186151401#0 186151401#1 186151401#2 186151401#3 186151401#4 186151401#5 186151401#8 186151401#9 186151401#10 1035566856#1 1035566856#2 1035566856#3 1035566856#4 1035566856#5 1035566856#6 1035566856#8 50365493#0 50365493#1 41955106#0 41955106#2 41955106#3 41955106#5 41955106#7 31513264#0 31513264#1 31513264#3 31513264#6 31513264#9 31513264#11 31513264#13 31513264#14 81048926#0 81048926#3 81048926#5 81048926#8 81048926#11 81048926#12 216493812#0 216493812#2 216493812#3 216493812#4 216493812#5 216493812#6 41231775#0 41231775#2 41231775#3 41231775#4 41231775#5 41231775#6 41231775#8 41231775#9 41231775#10 41231775#12 41231775#14 41231775#16 648464086#1 648464086#3 648464086#6"/>
    </vehicle>
    
    
    
    
    
    
    
    
    
    
    
    
    
    
    
    
    
    
    
    
    
    
    
    
    
    
    
    
    
    
    
    
    
    
    
    
    
    
    
    
    
    
    
    
    <vehicle id="285012" depart="28816.72" departLane="random" departPos="last" departSpeed="avg" insertionChecks="none">
        <route edges="115487383 388180905#1 961596453#0 961596453#1 198748412#0 198748412#1 198748412#3 198748412#4 198748412#5 198748412#6 198748412#7 198748412#8 198748412#9 198748412#10 198748412#11 198748412#12 388180907#0 388180907#1 388180908 388180911#0 388180911#1 388180911#3 388180911#4 388180911#6 388180903#0 388180903#1 388180903#2 388180903#3 388180903#6 976806605#0 51080881#1 51080881#2 51080881#3 51080881#4 51080881#5 51080881#6 971295527#1 303011011#0 303011011#1 43692529 47183319#0 47183319#1 47183319#2 47183319#3 47183319#5 47183319#6 774647777#0 774647777#2 774647777#3 774647777#4 774647777#6 50365486 50365484#0 50365484#1 50365484#2 50365484#3 50365484#4 31513264#0 31513264#1 31513264#3 31513264#6 31513264#9 31513264#11 31513264#13 31513264#14 81048926#0 81048926#3 81048926#5 81048926#8 81048926#11 81048926#12 216493812#0 216493812#2 216493812#3 216493812#4 216493812#5 216493812#6 43648828#0 43648828#2 43648828#3 43648828#4 43648828#7 26186663#20 26186663#22 26186663#24 26186663#26 26186663#27 26186663#29 26186663#31 26186663#33 26186663#35 1065435841#0 1065435841#2 1024115710 48208827#3 48208827#5 48208827#6 48208827#8 48208827#10 48208827#11 48208827#12 48208827#14 758633401#50 758633401#52 758633401#54 758633401#55 758633401#56 758633401#57 758633401#58 758633401#59 758633401#60 758633401#61 758633401#62 758633401#64 758633401#66 758633401#67 758633401#68 796879783#0"/>
    </vehicle>
    
    <vehicle id="285014" depart="28816.75" departLane="random" departPos="last" departSpeed="avg" insertionChecks="none">
        <route edges="437844966#0 437844965#0 437844965#1 764379159#0 764379159#2 764379159#5 764379159#8 764379159#10 764379159#12 764379159#13 437844964#0 437844964#1 437844964#2 437844964#3 437844964#4 437844964#5 808598593#0 808598593#3 808598595#0 808598595#1 808598595#2 808598595#3 808598595#4 808598595#5 808598595#7 808598595#8 808598595#9 808598595#10 808598595#11 808598595#12 99445820#1 99445820#4 99445820#6 183680232#1 183680232#2 183680232#3 183680232#4 183680232#5 183680232#6 183680232#7 803698792#0 803698792#1 803698792#2 803698792#4 803698792#5 803698792#6 803698792#7 803698792#8 803698792#12 803698792#13 299766534#0 299766534#1 299766534#2 437892676#0 437892676#1 437892676#2 437892676#3 437892676#4 437892676#5 437892676#7 378760671#1 378760671#2 378760671#3 378760671#4 378760671#5 378760671#6 378760671#7 29241976#1 29241976#4 29241976#5 29241976#6 29241976#7 29241976#8 29241976#9 29241976#10 29241976#12 29241976#13 29241976#14 29241976#15 29241976#16 29241976#17 29241976#18 29241976#19 29241976#20 29241976#21 29241976#22 29241976#23 29241976#24 29241976#26 29241976#27 29241976#28 29241976#29 29241976#30 29241976#31 29241976#32 29241976#35 29241976#37 29241976#39 29241976#41 29241976#42 29241976#43 29241976#45 29241976#47 29241976#48 29241976#50 29241976#51 29241976#54 29241976#56 29241976#59 29241976#61 29241976#62 29241976#64 29241976#66 29241976#67 29241976#69 1042819573#0 1042819573#1 1042819573#2 1042819573#4 1042819573#7 1042819573#9 299766537#3 299766537#5 299766537#6 299766537#7 299766537#8 299766537#9 299766537#10 299766537#13 641820142#0 641820142#2 828689155#0 828689155#1 648464071#0 648464071#2 648464071#3 648464071#6 648464071#9 648424858#0 667850585#0 648424856#2 648424856#5 667850687#2 79096453 1054658315#0 405968833#0 405968833#1 405968833#3 80227669#0 80227669#5 80227669#11 80227669#13 828700666#6 828700666#8 1147974332#0"/>
    </vehicle>
    
    
    
    
    
    
    
    
    
    
    
    
    
    
    
    
    
    
    
    
    
    <vehicle id="285036" depart="28817.43" departLane="random" departPos="last" departSpeed="avg" insertionChecks="none">
        <route edges="648424858#0 667850585#0 648424856#2 648424856#5 667850687#2 43210050#9 43210050#11 43210050#13 43210050#15 43210050#16 43210050#17 648456497#0 648456497#1 641820147 304370789#0 304370789#1 304370789#2 304370789#6 304370789#7 304370789#8 304370789#9 304370789#10 304370789#11 304370789#12 304370789#13 304370789#14 304370789#15 304370789#16 304370789#17 779233770#0 779233770#1 779233770#2 779233770#3 779233770#4 779233770#5 779233770#6 779233768#0 779233768#1 758611303 758516484#1 758516484#3 758516484#4 758516484#5 758516484#6 758516484#9 758516484#11 758516484#12 758516484#13 758516484#14 758516484#15 758516484#16 758516484#18 758516484#20 1123085163#0 1123085163#1 1123085165 610377855#0 610377855#1 610377855#2 610377855#3 610377855#4 610377855#5 610377855#6 610377855#8 751769146#1 751769149#1 648467416#1 648467416#2 648467416#3 648467416#5 -43998461#2 -43998461#0 -648467418#5 -648467418#4 -648467418#3 -648467418#2 -648467418#0 43677350"/>
    </vehicle>
    
    
    
    
    
    
    
    
    
    
    
    
    
    
    
    
    
    
    
    
    <vehicle id="285057" depart="28818.03" departLane="random" departPos="last" departSpeed="avg" insertionChecks="none">
        <route edges="437718725#1 437718725#2 437718725#3 1069176993 26408821#0 49138794 41955106#3 41955106#5 41955106#7 31513264#0 31513264#1 31513264#3 31513264#6 31513264#9 31513264#11 31513264#13 31513264#14 81048926#0 81048926#3 81048926#5 81048926#8 81048926#11 81048926#12 216493812#0 216493812#2 216493812#3 216493812#4 216493812#5 216493812#6 43648828#0 43648828#2 43648828#3 43648828#4 43648828#7 43648828#11 -656884740#47 -656884740#44 -656884740#43 -656884740#41 -656884740#39 -656884740#38 -656884740#36 -656884740#34 -656884740#32 -656884740#28 -656884740#25 -656884740#24 -656884740#22 -656884740#19 -656884740#17 -656884740#16 -656884740#15 -656884740#13 -656884740#11 -656884740#9 -656884740#7 -656884740#5 -656884740#4 -656884740#3 -656884740#1 44354133#0 44354133#2 747491252#0 747491252#2 747491252#3 747488554#1 747488554#3 747488554#4 747488554#5 747488554#6 747488554#7 747488554#8 747488554#9 747488554#10 747488554#11 747488554#12 747488554#13 747488554#14 747484433#1 747484433#2 425428129#41 506611801#1 506611801#4 506611801#5 47576124#1"/>
    </vehicle>
    
    
    
    <vehicle id="285061" depart="28818.22" departLane="random" departPos="last" departSpeed="avg" insertionChecks="none">
        <route edges="48208830#4 648464081#0 648464081#2 648464081#3 648464081#4 648464081#6 648464081#8 648464081#9 648464081#11 648464081#12 648464081#13 648464081#14 648464081#15 648464081#16 648464081#17 648464081#18 43648824#0 43648824#1 43648824#2 43648824#3 648464071#0 648464071#2 648464071#3 648464071#6 648464071#9 648424858#0 89231328#0 89231328#2 89231328#3 89231328#5 89231328#7 89231328#10 89231328#13 89231328#15 46978440#0 46978440#1 46978440#2 46978440#3 51817279 50365491#0 50365491#1 50365491#3 50365491#4 47183320#1 47183320#3 47183320#4 47183320#6 47183320#7 303010993 303010992 43692517 229140285#0 971295526#0 58616834#1 58616834#3 58616834#4 976806606#0 388180904#0 388180904#3 388180904#5 388180904#6 388180904#7 388180904#9 388180910#0 388180910#1 388180910#2 388180910#5 310476727#0 310476727#1 310476727#2 -388180897#24 -388180897#23 -388180897#22 -388180897#21 -388180897#20 -388180897#18 -388180897#17 -388180897#16 -388180897#15 -388180897#14 -388180897#13 -388180897#12 -388180897#11 -388180897#10 -388180897#9 -388180897#8 -388180897#7 -388180897#6 -388180897#5 -388180897#4 -388180897#3 -388180897#2 -388180897#1 -388180897#0 -388180898#1 -388180898#0 -310476718#3 -310476718#2"/>
    </vehicle>
    
    
    
    
    
    
    
    
    
    
    
    
    <vehicle id="285074" depart="28818.62" departLane="random" departPos="last" departSpeed="avg" insertionChecks="none">
        <route edges="980554533#2 26161139#0 26161139#2 26161139#4 26161139#7 26161139#9 299766532#0 299766532#1 299766532#4 47183330#0 81048915#0 81048915#3 81048915#6 81048915#9 667850585#0 648424856#2 648424856#5 667850687#2 79096453 1054658315#0 405968833#0 405968833#1 405968833#3 80227669#0 80227669#5 80227669#11 80227669#13 828700666#6 828700666#8 1147974332#0 1147974332#2 1147974332#4 1147974332#5 1147974332#7 1147974332#9 1147974332#11"/>
    </vehicle>
    
    
    
    
    
    
    
    
    
    
    
    
    
    
    
    
    
    
    
    
    
    
    
    
    
    
    
    
    <vehicle id="285103" depart="28819.69" departLane="random" departPos="last" departSpeed="avg" insertionChecks="none">
        <route edges="779233768#0 779233768#1 758611303 26925083#1 828700666#1 828700666#3 641820150#13 186185958#1 186185958#2 186185958#4 186185958#7 667850681#0 667850681#3 80227672 80227670#0 667850685#1 667850685#4 667850684#2 667850583#2 89231328#0 89231328#2 89231328#3 89231328#5 89231328#7 89231328#10 89231328#13 89231328#15 163165896#0 163165896#1 163165896#4 163165896#5 163165896#8 1160588192#1 1160588192#4 1160588192#5 1160588192#6 1160588192#8 50365476#23 225520858 837824635#1 231167046#0 231167046#1 231167046#2 231167046#3 896197624 144894320#4 144893925#1 144893925#2 144893925#3 144893925#4 144893925#5 144893933#0 144893933#1 144893933#2 144893938#0 144893938#1 144893938#2 144893923#0 144893923#1 144893923#2 144893923#3 378453551 115488165#0 115488165#1"/>
    </vehicle>
    
    
    
    
    
    
    
    
    
    
    
    
    
    
    
    
    
    
    
    
    
    
    
    
    
    
    
    <vehicle id="285131" depart="28820.28" departLane="random" departPos="last" departSpeed="avg" insertionChecks="none">
        <route edges="639966879#16 641820150#1 641820150#2 641820150#3 641820150#4 641820150#5 641820150#6 641820150#7 641820150#8 641820150#9 641820150#10 641820150#13 186185958#1 186185958#2 186185958#4 186185958#7 667850681#0 667850681#3 80227672 80227670#0 667850685#1 667850685#4 667850684#2 667850583#2 80227668#0 80227668#3 80227668#6 80227668#9 47183330#4 47183330#7 47183330#9 47183330#10 47183330#11 47183330#12 47183330#13 47183330#14 229140291#6 229140291#8 229140291#9 229140291#12"/>
    </vehicle>
    
    
    
    
    
    
    
    
    
    
    
    
    
    
    
    
    
    
    
    
    
    
    
    
    
    
    
    
    
    
    
    
    
    
    
    
    
    
    <vehicle id="285170" depart="28821.34" departLane="random" departPos="last" departSpeed="avg" insertionChecks="none">
        <route edges="639966879#11 639966879#14 639966879#15 639966879#16 641820150#1 641820150#2 641820150#3 641820150#4 641820150#5 641820150#6 641820150#7 641820150#8 641820150#9 641820150#10 641820150#13 186185958#1 186185958#2 186185958#4 186185958#7 667850681#0 667850681#3 80227672 80227670#0 667850685#1 667850685#4 667850684#2 667850583#2 80227668#0 80227668#3 80227668#6 80227668#9 81048927#1 81048927#5 81048927#7 81048927#10 80227671#0 80227671#2 80227671#5 980554536#0 977825111#0 977825111#3 996641678#0 996641678#3 996641678#7 996641678#12 99176328#0 99176328#2 99176328#4 99176328#6 99176328#8 99176328#9 99176328#10 99176328#12 304834982#1 304834982#3 304834982#5 304834982#6 304834982#8 304834982#10 304834982#11 304834982#14 749668248#0 749668248#2 183132259 183132265#0 1017359570 183132262 26160791#0 26160791#2 26160791#4 26160791#5 311076727#3 310480087#1 310480087#2"/>
    </vehicle>
    
    
    
    
    
    
    
    
    
    
    
    
    
    
    
    
    
    
    
    
    
    
    
    
    
    
    
    <vehicle id="285198" depart="28822.13" departLane="random" departPos="last" departSpeed="avg" insertionChecks="none">