<?xml version="1.0" encoding="UTF-8"?>

<!-- generated on 2024-08-20 15:14:59 by Eclipse SUMO netedit Version 1.12.0
<configuration xmlns:xsi="http://www.w3.org/2001/XMLSchema-instance" xsi:noNamespaceSchemaLocation="http://sumo.dlr.de/xsd/netconvertConfiguration.xsd">

    <input>
        <sumo-net-file value="/home/shigen0/simulator/OpenCV2X/scenarios/numo/interjunction.test.net.xml"/>
    </input>

    <output>
        <output-file value="/home/shigen0/simulator/OpenCV2X/scenarios/numo/interjunction.test.net.xml"/>
    </output>

    <processing>
        <geometry.min-radius.fix.railways value="false"/>
        <geometry.max-grade.fix value="false"/>
        <offset.disable-normalization value="true"/>
        <lefthand value="false"/>
    </processing>

    <junctions>
        <no-turnarounds value="true"/>
        <junctions.corner-detail value="5"/>
        <junctions.limit-turn-speed value="5.5"/>
        <rectangular-lane-cut value="false"/>
    </junctions>

    <pedestrian>
        <walkingareas value="false"/>
    </pedestrian>

    <report>
        <aggregate-warnings value="5"/>
    </report>

</configuration>
-->

<net version="1.9" junctionCornerDetail="5" limitTurnSpeed="5.50" xmlns:xsi="http://www.w3.org/2001/XMLSchema-instance" xsi:noNamespaceSchemaLocation="http://sumo.dlr.de/xsd/net_file.xsd">

    <location netOffset="0.00,0.00" convBoundary="15.00,0.00,215.00,200.00" origBoundary="-10000000000.00,-10000000000.00,10000000000.00,10000000000.00" projParameter="!"/>

    <edge id=":J0_0" function="internal">
        <lane id=":J0_0_0" index="0" speed="13.89" length="74.35" shape="31.76,132.60 19.54,116.30 15.46,100.00 19.54,83.70 31.76,67.40"/>
        <lane id=":J0_0_1" index="1" speed="13.89" length="69.19" shape="34.02,130.34 22.65,115.17 18.85,100.00 22.65,84.83 34.02,69.66"/>
        <lane id=":J0_0_2" index="2" speed="13.89" length="64.03" shape="36.29,128.07 25.76,114.04 22.25,100.00 25.76,85.96 36.29,71.93"/>
    </edge>
    <edge id=":J0_3" function="internal">
        <lane id=":J0_3_0" index="0" speed="10.85" length="6.87" shape="38.55,125.81 34.98,119.94"/>
        <lane id=":J0_3_1" index="1" speed="10.36" length="6.25" shape="38.55,125.81 35.36,120.43"/>
    </edge>
    <edge id=":J0_17" function="internal">
        <lane id=":J0_17_0" index="0" speed="10.85" length="36.25" shape="34.98,119.94 32.36,115.62 32.61,105.70 38.67,98.18 49.90,95.20"/>
    </edge>
    <edge id=":J0_18" function="internal">
        <lane id=":J0_18_0" index="0" speed="10.36" length="32.93" shape="35.36,120.43 33.09,116.61 33.67,107.73 39.54,101.04 49.90,98.40"/>
    </edge>
    <edge id=":J0_5" function="internal">
        <lane id=":J0_5_0" index="0" speed="5.47" length="9.74" shape="49.90,111.20 46.81,111.55 45.39,112.59 45.66,114.33 47.60,116.76"/>
        <lane id=":J0_5_1" index="1" speed="7.42" length="19.31" shape="49.90,108.00 43.77,108.69 40.97,110.76 41.49,114.20 45.34,119.02"/>
        <lane id=":J0_5_2" index="2" speed="8.23" length="24.11" shape="49.90,108.00 41.93,108.83 38.14,111.32 38.52,115.47 43.07,121.29"/>
    </edge>
    <edge id=":J0_8" function="internal">
        <lane id=":J0_8_0" index="0" speed="11.31" length="47.00" shape="49.90,104.80 37.47,101.63 30.44,93.60 29.74,82.96 36.29,71.93"/>
        <lane id=":J0_8_1" index="1" speed="10.36" length="39.19" shape="49.90,101.60 39.54,98.96 33.67,92.27 33.09,83.39 38.55,74.19"/>
    </edge>
    <edge id=":J0_10" function="internal">
        <lane id=":J0_10_0" index="0" speed="5.47" length="9.74" shape="47.60,83.24 45.66,85.67 45.39,87.41 46.81,88.45 49.90,88.80"/>
        <lane id=":J0_10_1" index="1" speed="6.53" length="14.55" shape="47.60,83.24 44.46,87.07 43.79,89.81 45.61,91.45 49.90,92.00"/>
        <lane id=":J0_10_2" index="2" speed="7.44" length="19.38" shape="47.60,83.24 43.26,88.47 42.19,92.21 44.41,94.45 49.90,95.20"/>
    </edge>
    <edge id=":J0_13" function="internal">
        <lane id=":J0_13_0" index="0" speed="12.85" length="38.23" shape="47.60,83.24 41.31,91.62 39.22,100.00 41.31,108.38 47.60,116.76"/>
        <lane id=":J0_13_1" index="1" speed="13.66" length="43.39" shape="45.34,80.98 38.20,90.49 35.82,100.00 38.20,109.51 45.34,119.02"/>
        <lane id=":J0_13_2" index="2" speed="13.89" length="48.55" shape="43.07,78.71 35.09,89.36 32.43,100.00 35.09,110.64 43.07,121.29"/>
        <lane id=":J0_13_3" index="3" speed="13.89" length="53.71" shape="40.81,76.45 31.98,88.23 29.04,100.00 31.98,111.77 40.81,123.55"/>
    </edge>
    <edge id=":J1_0" function="internal">
        <lane id=":J1_0_0" index="0" speed="6.51" length="9.03" shape="103.80,116.80 103.45,114.35 102.40,112.60 100.65,111.55 98.20,111.20"/>
    </edge>
    <edge id=":J1_1" function="internal">
        <lane id=":J1_1_0" index="0" speed="13.89" length="33.60" shape="103.80,116.80 103.80,83.20"/>
        <lane id=":J1_1_1" index="1" speed="13.89" length="33.60" shape="107.00,116.80 107.00,83.20"/>
        <lane id=":J1_1_2" index="2" speed="13.89" length="33.60" shape="110.20,116.80 110.20,83.20"/>
        <lane id=":J1_1_3" index="3" speed="13.89" length="33.60" shape="113.40,116.80 113.40,83.20"/>
    </edge>
    <edge id=":J1_5" function="internal">
        <lane id=":J1_5_0" index="0" speed="11.36" length="5.01" shape="113.40,116.80 114.11,111.84"/>
    </edge>
    <edge id=":J1_28" function="internal">
        <lane id=":J1_28_0" index="0" speed="11.36" length="24.66" shape="114.11,111.84 114.55,108.75 118.00,103.00 123.75,99.55 131.80,98.40"/>
    </edge>
    <edge id=":J1_6" function="internal">
        <lane id=":J1_6_0" index="0" speed="6.51" length="9.03" shape="131.80,111.20 129.35,111.55 127.60,112.60 126.55,114.35 126.20,116.80"/>
        <lane id=":J1_6_1" index="1" speed="8.00" length="14.19" shape="131.80,108.00 127.95,108.55 125.20,110.20 123.55,112.95 123.00,116.80"/>
    </edge>
    <edge id=":J1_8" function="internal">
        <lane id=":J1_8_0" index="0" speed="13.89" length="33.70" shape="131.80,108.00 121.80,108.50 115.00,109.60 108.20,110.70 98.20,111.20"/>
        <lane id=":J1_8_1" index="1" speed="13.89" length="33.70" shape="131.80,108.00 98.20,108.00"/>
        <lane id=":J1_8_2" index="2" speed="13.89" length="33.70" shape="131.80,104.80 98.20,104.80"/>
        <lane id=":J1_8_3" index="3" speed="13.89" length="33.70" shape="131.80,104.80 121.80,104.30 115.00,103.20 108.20,102.10 98.20,101.60"/>
    </edge>
    <edge id=":J1_12" function="internal">
        <lane id=":J1_12_0" index="0" speed="12.28" length="16.98" shape="131.80,104.80 122.35,103.45 115.97,99.62"/>
        <lane id=":J1_12_1" index="1" speed="11.36" length="7.62" shape="131.80,101.60 124.25,100.52"/>
    </edge>
    <edge id=":J1_29" function="internal">
        <lane id=":J1_29_0" index="0" speed="12.28" length="17.85" shape="115.97,99.62 115.60,99.40 111.55,92.65 110.20,83.20"/>
    </edge>
    <edge id=":J1_30" function="internal">
        <lane id=":J1_30_0" index="0" speed="11.36" length="22.05" shape="124.25,100.52 123.75,100.45 118.00,97.00 114.55,91.25 113.40,83.20"/>
    </edge>
    <edge id=":J1_14" function="internal">
        <lane id=":J1_14_0" index="0" speed="6.51" length="9.03" shape="126.20,83.20 126.55,85.65 127.60,87.40 129.35,88.45 131.80,88.80"/>
    </edge>
    <edge id=":J1_15" function="internal">
        <lane id=":J1_15_0" index="0" speed="13.89" length="33.60" shape="126.20,83.20 126.20,116.80"/>
        <lane id=":J1_15_1" index="1" speed="13.89" length="33.60" shape="123.00,83.20 123.00,116.80"/>
        <lane id=":J1_15_2" index="2" speed="13.89" length="33.60" shape="119.80,83.20 119.80,116.80"/>
        <lane id=":J1_15_3" index="3" speed="13.89" length="33.60" shape="116.60,83.20 116.60,116.80"/>
    </edge>
    <edge id=":J1_19" function="internal">
        <lane id=":J1_19_0" index="0" speed="11.36" length="5.01" shape="116.60,83.20 115.89,88.16"/>
    </edge>
    <edge id=":J1_31" function="internal">
        <lane id=":J1_31_0" index="0" speed="11.36" length="24.66" shape="115.89,88.16 115.45,91.25 112.00,97.00 106.25,100.45 98.20,101.60"/>
    </edge>
    <edge id=":J1_20" function="internal">
        <lane id=":J1_20_0" index="0" speed="6.51" length="9.03" shape="98.20,88.80 100.65,88.45 102.40,87.40 103.45,85.65 103.80,83.20"/>
        <lane id=":J1_20_1" index="1" speed="8.00" length="14.19" shape="98.20,92.00 102.05,91.45 104.80,89.80 106.45,87.05 107.00,83.20"/>
    </edge>
    <edge id=":J1_22" function="internal">
        <lane id=":J1_22_0" index="0" speed="13.89" length="33.70" shape="98.20,92.00 108.20,91.50 115.00,90.40 121.80,89.30 131.80,88.80"/>
        <lane id=":J1_22_1" index="1" speed="13.89" length="33.70" shape="98.20,92.00 131.80,92.00"/>
        <lane id=":J1_22_2" index="2" speed="13.89" length="33.70" shape="98.20,95.20 131.80,95.20"/>
        <lane id=":J1_22_3" index="3" speed="13.89" length="33.70" shape="98.20,95.20 108.20,95.70 115.00,96.80 121.80,97.90 131.80,98.40"/>
    </edge>
    <edge id=":J1_26" function="internal">
        <lane id=":J1_26_0" index="0" speed="12.28" length="16.98" shape="98.20,95.20 107.65,96.55 114.03,100.38"/>
        <lane id=":J1_26_1" index="1" speed="11.36" length="7.62" shape="98.20,98.40 105.75,99.48"/>
    </edge>
    <edge id=":J1_32" function="internal">
        <lane id=":J1_32_0" index="0" speed="12.28" length="17.85" shape="114.03,100.38 114.40,100.60 118.45,107.35 119.80,116.80"/>
    </edge>
    <edge id=":J1_33" function="internal">
        <lane id=":J1_33_0" index="0" speed="11.36" length="22.05" shape="105.75,99.48 106.25,99.55 112.00,103.00 115.45,108.75 116.60,116.80"/>
    </edge>
    <edge id=":J2_0" function="internal">
        <lane id=":J2_0_0" index="0" speed="13.89" length="74.35" shape="198.24,67.40 210.46,83.70 214.54,100.00 210.46,116.30 198.24,132.60"/>
        <lane id=":J2_0_1" index="1" speed="13.89" length="69.19" shape="195.98,69.66 207.35,84.83 211.15,100.00 207.35,115.17 195.98,130.34"/>
        <lane id=":J2_0_2" index="2" speed="13.89" length="64.03" shape="193.71,71.93 204.24,85.96 207.75,100.00 204.24,114.04 193.71,128.07"/>
    </edge>
    <edge id=":J2_3" function="internal">
        <lane id=":J2_3_0" index="0" speed="10.85" length="6.87" shape="191.45,74.19 195.02,80.06"/>
        <lane id=":J2_3_1" index="1" speed="10.36" length="6.25" shape="191.45,74.19 194.64,79.57"/>
    </edge>
    <edge id=":J2_17" function="internal">
        <lane id=":J2_17_0" index="0" speed="10.85" length="36.25" shape="195.02,80.06 197.64,84.38 197.39,94.30 191.33,101.82 180.10,104.80"/>
    </edge>
    <edge id=":J2_18" function="internal">
        <lane id=":J2_18_0" index="0" speed="10.36" length="32.93" shape="194.64,79.57 196.91,83.39 196.33,92.27 190.46,98.96 180.10,101.60"/>
    </edge>
    <edge id=":J2_5" function="internal">
        <lane id=":J2_5_0" index="0" speed="5.47" length="9.74" shape="180.10,88.80 183.19,88.45 184.61,87.41 184.34,85.67 182.40,83.24"/>
        <lane id=":J2_5_1" index="1" speed="7.42" length="19.31" shape="180.10,92.00 186.23,91.31 189.03,89.24 188.51,85.80 184.66,80.98"/>
        <lane id=":J2_5_2" index="2" speed="8.23" length="24.11" shape="180.10,92.00 188.07,91.17 191.86,88.68 191.48,84.53 186.93,78.71"/>
    </edge>
    <edge id=":J2_8" function="internal">
        <lane id=":J2_8_0" index="0" speed="11.31" length="47.00" shape="180.10,95.20 192.53,98.37 199.56,106.40 200.26,117.04 193.71,128.07"/>
        <lane id=":J2_8_1" index="1" speed="10.36" length="39.19" shape="180.10,98.40 190.46,101.04 196.33,107.73 196.91,116.61 191.45,125.81"/>
    </edge>
    <edge id=":J2_10" function="internal">
        <lane id=":J2_10_0" index="0" speed="5.47" length="9.74" shape="182.40,116.76 184.34,114.33 184.61,112.59 183.19,111.55 180.10,111.20"/>
        <lane id=":J2_10_1" index="1" speed="6.53" length="14.55" shape="182.40,116.76 185.54,112.93 186.21,110.19 184.39,108.55 180.10,108.00"/>
        <lane id=":J2_10_2" index="2" speed="7.44" length="19.38" shape="182.40,116.76 186.74,111.53 187.81,107.79 185.59,105.55 180.10,104.80"/>
    </edge>
    <edge id=":J2_13" function="internal">
        <lane id=":J2_13_0" index="0" speed="12.85" length="38.23" shape="182.40,116.76 188.69,108.38 190.78,100.00 188.69,91.62 182.40,83.24"/>
        <lane id=":J2_13_1" index="1" speed="13.66" length="43.39" shape="184.66,119.02 191.80,109.51 194.18,100.00 191.80,90.49 184.66,80.98"/>
        <lane id=":J2_13_2" index="2" speed="13.89" length="48.55" shape="186.93,121.29 194.91,110.64 197.57,100.00 194.91,89.36 186.93,78.71"/>
        <lane id=":J2_13_3" index="3" speed="13.89" length="53.71" shape="189.19,123.55 198.02,111.77 200.96,100.00 198.02,88.23 189.19,76.45"/>
    </edge>
    <edge id=":J3_0" function="internal">
        <lane id=":J3_0_0" index="0" speed="13.89" length="74.35" shape="147.60,183.24 131.30,195.46 115.00,199.54 98.70,195.46 82.40,183.24"/>
        <lane id=":J3_0_1" index="1" speed="13.89" length="69.19" shape="145.34,180.98 130.17,192.35 115.00,196.15 99.83,192.35 84.66,180.98"/>
        <lane id=":J3_0_2" index="2" speed="13.89" length="64.03" shape="143.07,178.71 129.04,189.24 115.00,192.75 100.96,189.24 86.93,178.71"/>
    </edge>
    <edge id=":J3_3" function="internal">
        <lane id=":J3_3_0" index="0" speed="10.85" length="6.87" shape="140.81,176.45 134.94,180.02"/>
        <lane id=":J3_3_1" index="1" speed="10.36" length="6.25" shape="140.81,176.45 135.43,179.64"/>
    </edge>
    <edge id=":J3_17" function="internal">
        <lane id=":J3_17_0" index="0" speed="10.85" length="36.25" shape="134.94,180.02 130.62,182.64 120.70,182.39 113.18,176.33 110.20,165.10"/>
    </edge>
    <edge id=":J3_18" function="internal">
        <lane id=":J3_18_0" index="0" speed="10.36" length="32.93" shape="135.43,179.64 131.61,181.91 122.73,181.33 116.04,175.46 113.40,165.10"/>
    </edge>
    <edge id=":J3_5" function="internal">
        <lane id=":J3_5_0" index="0" speed="5.47" length="9.74" shape="126.20,165.10 126.55,168.19 127.59,169.61 129.33,169.34 131.76,167.40"/>
        <lane id=":J3_5_1" index="1" speed="7.42" length="19.31" shape="123.00,165.10 123.69,171.23 125.76,174.03 129.20,173.51 134.02,169.66"/>
        <lane id=":J3_5_2" index="2" speed="8.23" length="24.11" shape="123.00,165.10 123.83,173.07 126.32,176.86 130.47,176.48 136.29,171.93"/>
    </edge>
    <edge id=":J3_8" function="internal">
        <lane id=":J3_8_0" index="0" speed="11.31" length="47.00" shape="119.80,165.10 116.63,177.53 108.60,184.56 97.96,185.26 86.93,178.71"/>
        <lane id=":J3_8_1" index="1" speed="10.36" length="39.19" shape="116.60,165.10 113.96,175.46 107.27,181.33 98.39,181.91 89.19,176.45"/>
    </edge>
    <edge id=":J3_10" function="internal">
        <lane id=":J3_10_0" index="0" speed="5.47" length="9.74" shape="98.24,167.40 100.67,169.34 102.41,169.61 103.45,168.19 103.80,165.10"/>
        <lane id=":J3_10_1" index="1" speed="6.53" length="14.55" shape="98.24,167.40 102.07,170.54 104.81,171.21 106.45,169.39 107.00,165.10"/>
        <lane id=":J3_10_2" index="2" speed="7.44" length="19.38" shape="98.24,167.40 103.47,171.74 107.21,172.81 109.45,170.59 110.20,165.10"/>
    </edge>
    <edge id=":J3_13" function="internal">
        <lane id=":J3_13_0" index="0" speed="12.85" length="38.23" shape="98.24,167.40 106.62,173.69 115.00,175.78 123.38,173.69 131.76,167.40"/>
        <lane id=":J3_13_1" index="1" speed="13.66" length="43.39" shape="95.98,169.66 105.49,176.80 115.00,179.18 124.51,176.80 134.02,169.66"/>
        <lane id=":J3_13_2" index="2" speed="13.89" length="48.55" shape="93.71,171.93 104.36,179.91 115.00,182.57 125.64,179.91 136.29,171.93"/>
        <lane id=":J3_13_3" index="3" speed="13.89" length="53.71" shape="91.45,174.19 103.23,183.02 115.00,185.96 126.77,183.02 138.55,174.19"/>
    </edge>
    <edge id=":J4_0" function="internal">
        <lane id=":J4_0_0" index="0" speed="5.47" length="9.74" shape="103.80,34.90 103.45,31.81 102.41,30.39 100.67,30.66 98.24,32.60"/>
        <lane id=":J4_0_1" index="1" speed="7.42" length="19.31" shape="107.00,34.90 106.31,28.77 104.24,25.97 100.80,26.49 95.98,30.34"/>
        <lane id=":J4_0_2" index="2" speed="8.23" length="24.11" shape="107.00,34.90 106.17,26.93 103.68,23.14 99.53,23.52 93.71,28.07"/>
    </edge>
    <edge id=":J4_3" function="internal">
        <lane id=":J4_3_0" index="0" speed="11.31" length="47.00" shape="110.20,34.90 113.37,22.47 121.40,15.44 132.04,14.74 143.07,21.29"/>
        <lane id=":J4_3_1" index="1" speed="10.36" length="39.19" shape="113.40,34.90 116.04,24.54 122.73,18.67 131.61,18.09 140.81,23.55"/>
    </edge>
    <edge id=":J4_5" function="internal">
        <lane id=":J4_5_0" index="0" speed="5.47" length="9.74" shape="131.76,32.60 129.33,30.66 127.59,30.39 126.55,31.81 126.20,34.90"/>
        <lane id=":J4_5_1" index="1" speed="6.53" length="14.55" shape="131.76,32.60 127.93,29.46 125.19,28.79 123.55,30.61 123.00,34.90"/>
        <lane id=":J4_5_2" index="2" speed="7.44" length="19.38" shape="131.76,32.60 126.53,28.26 122.79,27.19 120.55,29.41 119.80,34.90"/>
    </edge>
    <edge id=":J4_8" function="internal">
        <lane id=":J4_8_0" index="0" speed="12.85" length="38.23" shape="131.76,32.60 123.38,26.31 115.00,24.22 106.62,26.31 98.24,32.60"/>
        <lane id=":J4_8_1" index="1" speed="13.66" length="43.39" shape="134.02,30.34 124.51,23.20 115.00,20.82 105.49,23.20 95.98,30.34"/>
        <lane id=":J4_8_2" index="2" speed="13.89" length="48.55" shape="136.29,28.07 125.64,20.09 115.00,17.43 104.36,20.09 93.71,28.07"/>
        <lane id=":J4_8_3" index="3" speed="13.89" length="53.71" shape="138.55,25.81 126.77,16.98 115.00,14.04 103.23,16.98 91.45,25.81"/>
    </edge>
    <edge id=":J4_12" function="internal">
        <lane id=":J4_12_0" index="0" speed="13.89" length="74.35" shape="82.40,16.76 98.70,4.54 115.00,0.46 131.30,4.54 147.60,16.76"/>
        <lane id=":J4_12_1" index="1" speed="13.89" length="69.19" shape="84.66,19.02 99.83,7.65 115.00,3.85 130.17,7.65 145.34,19.02"/>
        <lane id=":J4_12_2" index="2" speed="13.89" length="64.03" shape="86.93,21.29 100.96,10.76 115.00,7.25 129.04,10.76 143.07,21.29"/>
    </edge>
    <edge id=":J4_15" function="internal">
        <lane id=":J4_15_0" index="0" speed="10.85" length="6.87" shape="89.19,23.55 95.06,19.98"/>
        <lane id=":J4_15_1" index="1" speed="10.36" length="6.25" shape="89.19,23.55 94.57,20.36"/>
    </edge>
    <edge id=":J4_17" function="internal">
        <lane id=":J4_17_0" index="0" speed="10.85" length="36.25" shape="95.06,19.98 99.38,17.36 109.30,17.61 116.82,23.67 119.80,34.90"/>
    </edge>
    <edge id=":J4_18" function="internal">
        <lane id=":J4_18_0" index="0" speed="10.36" length="32.93" shape="94.57,20.36 98.39,18.09 107.27,18.67 113.96,24.54 116.60,34.90"/>
    </edge>

    <edge id="-E0" from="J1" to="J0" priority="-1">
        <lane id="-E0_0" index="0" speed="13.89" length="48.30" shape="98.20,111.20 49.90,111.20"/>
        <lane id="-E0_1" index="1" speed="13.89" length="48.30" shape="98.20,108.00 49.90,108.00"/>
        <lane id="-E0_2" index="2" speed="13.89" length="48.30" shape="98.20,104.80 49.90,104.80"/>
        <lane id="-E0_3" index="3" speed="13.89" length="48.30" shape="98.20,101.60 49.90,101.60"/>
    </edge>
    <edge id="-E1" from="J2" to="J1" priority="-1">
        <lane id="-E1_0" index="0" speed="13.89" length="48.30" shape="180.10,111.20 131.80,111.20"/>
        <lane id="-E1_1" index="1" speed="13.89" length="48.30" shape="180.10,108.00 131.80,108.00"/>
        <lane id="-E1_2" index="2" speed="13.89" length="48.30" shape="180.10,104.80 131.80,104.80"/>
        <lane id="-E1_3" index="3" speed="13.89" length="48.30" shape="180.10,101.60 131.80,101.60"/>
    </edge>
    <edge id="-E2" from="J3" to="J1" priority="-1">
        <lane id="-E2_0" index="0" speed="13.89" length="48.30" shape="103.80,165.10 103.80,116.80"/>
        <lane id="-E2_1" index="1" speed="13.89" length="48.30" shape="107.00,165.10 107.00,116.80"/>
        <lane id="-E2_2" index="2" speed="13.89" length="48.30" shape="110.20,165.10 110.20,116.80"/>
        <lane id="-E2_3" index="3" speed="13.89" length="48.30" shape="113.40,165.10 113.40,116.80"/>
    </edge>
    <edge id="-E3" from="J4" to="J1" priority="-1">
        <lane id="-E3_0" index="0" speed="13.89" length="48.30" shape="126.20,34.90 126.20,83.20"/>
        <lane id="-E3_1" index="1" speed="13.89" length="48.30" shape="123.00,34.90 123.00,83.20"/>
        <lane id="-E3_2" index="2" speed="13.89" length="48.30" shape="119.80,34.90 119.80,83.20"/>
        <lane id="-E3_3" index="3" speed="13.89" length="48.30" shape="116.60,34.90 116.60,83.20"/>
    </edge>
    <edge id="-E4" from="J0" to="J3" priority="-1">
        <lane id="-E4_0" index="0" speed="13.89" length="71.62" shape="47.60,116.76 98.24,167.40"/>
        <lane id="-E4_1" index="1" speed="13.89" length="71.62" shape="45.34,119.02 95.98,169.66"/>
        <lane id="-E4_2" index="2" speed="13.89" length="71.62" shape="43.07,121.29 93.71,171.93"/>
        <lane id="-E4_3" index="3" speed="13.89" length="71.62" shape="40.81,123.55 91.45,174.19"/>
    </edge>
    <edge id="-E5" from="J4" to="J0" priority="-1">
        <lane id="-E5_0" index="0" speed="13.89" length="71.62" shape="98.24,32.60 47.60,83.24"/>
        <lane id="-E5_1" index="1" speed="13.89" length="71.62" shape="95.98,30.34 45.34,80.98"/>
        <lane id="-E5_2" index="2" speed="13.89" length="71.62" shape="93.71,28.07 43.07,78.71"/>
        <lane id="-E5_3" index="3" speed="13.89" length="71.62" shape="91.45,25.81 40.81,76.45"/>
    </edge>
    <edge id="-E6" from="J2" to="J4" priority="-1">
        <lane id="-E6_0" index="0" speed="13.89" length="71.62" shape="182.40,83.24 131.76,32.60"/>
        <lane id="-E6_1" index="1" speed="13.89" length="71.62" shape="184.66,80.98 134.02,30.34"/>
        <lane id="-E6_2" index="2" speed="13.89" length="71.62" shape="186.93,78.71 136.29,28.07"/>
        <lane id="-E6_3" index="3" speed="13.89" length="71.62" shape="189.19,76.45 138.55,25.81"/>
    </edge>
    <edge id="-E7" from="J2" to="J3" priority="-1">
        <lane id="-E7_0" index="0" speed="13.89" length="71.62" shape="198.24,132.60 147.60,183.24"/>
        <lane id="-E7_1" index="1" speed="13.89" length="71.62" shape="195.98,130.34 145.34,180.98"/>
        <lane id="-E7_2" index="2" speed="13.89" length="71.62" shape="193.71,128.07 143.07,178.71"/>
        <lane id="-E7_3" index="3" speed="13.89" length="71.62" shape="191.45,125.81 140.81,176.45"/>
    </edge>
    <edge id="E0" from="J0" to="J1" priority="-1">
        <lane id="E0_0" index="0" speed="13.89" length="48.30" shape="49.90,88.80 98.20,88.80"/>
        <lane id="E0_1" index="1" speed="13.89" length="48.30" shape="49.90,92.00 98.20,92.00"/>
        <lane id="E0_2" index="2" speed="13.89" length="48.30" shape="49.90,95.20 98.20,95.20"/>
        <lane id="E0_3" index="3" speed="13.89" length="48.30" shape="49.90,98.40 98.20,98.40"/>
    </edge>
    <edge id="E1" from="J1" to="J2" priority="-1">
        <lane id="E1_0" index="0" speed="13.89" length="48.30" shape="131.80,88.80 180.10,88.80"/>
        <lane id="E1_1" index="1" speed="13.89" length="48.30" shape="131.80,92.00 180.10,92.00"/>
        <lane id="E1_2" index="2" speed="13.89" length="48.30" shape="131.80,95.20 180.10,95.20"/>
        <lane id="E1_3" index="3" speed="13.89" length="48.30" shape="131.80,98.40 180.10,98.40"/>
    </edge>
    <edge id="E2" from="J1" to="J3" priority="-1">
        <lane id="E2_0" index="0" speed="13.89" length="48.30" shape="126.20,116.80 126.20,165.10"/>
        <lane id="E2_1" index="1" speed="13.89" length="48.30" shape="123.00,116.80 123.00,165.10"/>
        <lane id="E2_2" index="2" speed="13.89" length="48.30" shape="119.80,116.80 119.80,165.10"/>
        <lane id="E2_3" index="3" speed="13.89" length="48.30" shape="116.60,116.80 116.60,165.10"/>
    </edge>
    <edge id="E3" from="J1" to="J4" priority="-1">
        <lane id="E3_0" index="0" speed="13.89" length="48.30" shape="103.80,83.20 103.80,34.90"/>
        <lane id="E3_1" index="1" speed="13.89" length="48.30" shape="107.00,83.20 107.00,34.90"/>
        <lane id="E3_2" index="2" speed="13.89" length="48.30" shape="110.20,83.20 110.20,34.90"/>
        <lane id="E3_3" index="3" speed="13.89" length="48.30" shape="113.40,83.20 113.40,34.90"/>
    </edge>
    <edge id="E4" from="J3" to="J0" priority="-1">
        <lane id="E4_0" index="0" speed="13.89" length="71.62" shape="82.40,183.24 31.76,132.60"/>
        <lane id="E4_1" index="1" speed="13.89" length="71.62" shape="84.66,180.98 34.02,130.34"/>
        <lane id="E4_2" index="2" speed="13.89" length="71.62" shape="86.93,178.71 36.29,128.07"/>
        <lane id="E4_3" index="3" speed="13.89" length="71.62" shape="89.19,176.45 38.55,125.81"/>
    </edge>
    <edge id="E5" from="J0" to="J4" priority="-1">
        <lane id="E5_0" index="0" speed="13.89" length="71.62" shape="31.76,67.40 82.40,16.76"/>
        <lane id="E5_1" index="1" speed="13.89" length="71.62" shape="34.02,69.66 84.66,19.02"/>
        <lane id="E5_2" index="2" speed="13.89" length="71.62" shape="36.29,71.93 86.93,21.29"/>
        <lane id="E5_3" index="3" speed="13.89" length="71.62" shape="38.55,74.19 89.19,23.55"/>
    </edge>
    <edge id="E6" from="J4" to="J2" priority="-1">
        <lane id="E6_0" index="0" speed="13.89" length="71.62" shape="147.60,16.76 198.24,67.40"/>
        <lane id="E6_1" index="1" speed="13.89" length="71.62" shape="145.34,19.02 195.98,69.66"/>
        <lane id="E6_2" index="2" speed="13.89" length="71.62" shape="143.07,21.29 193.71,71.93"/>
        <lane id="E6_3" index="3" speed="13.89" length="71.62" shape="140.81,23.55 191.45,74.19"/>
    </edge>
    <edge id="E7" from="J3" to="J2" priority="-1">
        <lane id="E7_0" index="0" speed="13.89" length="71.62" shape="131.76,167.40 182.40,116.76"/>
        <lane id="E7_1" index="1" speed="13.89" length="71.62" shape="134.02,169.66 184.66,119.02"/>
        <lane id="E7_2" index="2" speed="13.89" length="71.62" shape="136.29,171.93 186.93,121.29"/>
        <lane id="E7_3" index="3" speed="13.89" length="71.62" shape="138.55,174.19 189.19,123.55"/>
    </edge>

    <tlLogic id="J1" type="static" programID="0" offset="0">
        <phase duration="38" state="GGGGGgrrrrrrrrGGGGGgrrrrrrrr"/>
        <phase duration="3"  state="yyyyyyrrrrrrrryyyyyyrrrrrrrr"/>
        <phase duration="37" state="rrrrrrGGGGGGggrrrrrrGGGGGGgg"/>
        <phase duration="3"  state="rrrrrryyyyyyggrrrrrryyyyyygg"/>
        <phase duration="6"  state="rrrrrrrrrrrrGGrrrrrrrrrrrrGG"/>
        <phase duration="3"  state="rrrrrrrrrrrryyrrrrrrrrrrrryy"/>
    </tlLogic>

    <junction id="J0" type="priority" x="15.00" y="100.00" incLanes="E4_0 E4_1 E4_2 E4_3 -E0_0 -E0_1 -E0_2 -E0_3 -E5_0 -E5_1 -E5_2 -E5_3" intLanes=":J0_0_0 :J0_0_1 :J0_0_2 :J0_17_0 :J0_18_0 :J0_5_0 :J0_5_1 :J0_5_2 :J0_8_0 :J0_8_1 :J0_10_0 :J0_10_1 :J0_10_2 :J0_13_0 :J0_13_1 :J0_13_2 :J0_13_3" shape="30.63,133.73 48.73,115.63 47.60,114.06 47.61,113.51 47.99,113.11 48.76,112.88 49.90,112.80 49.90,87.20 47.99,86.89 47.61,86.49 47.60,85.94 47.98,85.24 48.73,84.37 30.63,66.27 21.26,77.51 15.64,88.76 13.76,100.00 15.64,111.24 21.26,122.49">
        <request index="0"  response="00000000000000000" foes="00000001100000000" cont="0"/>
        <request index="1"  response="00000000000000000" foes="00000001100000000" cont="0"/>
        <request index="2"  response="00000000000000000" foes="00000001100000000" cont="0"/>
        <request index="3"  response="11111110000000000" foes="11111111100000000" cont="1"/>
        <request index="4"  response="11111110000000000" foes="11111111100000000" cont="1"/>
        <request index="5"  response="11110000000000000" foes="11110000000000000" cont="0"/>
        <request index="6"  response="11110000000000000" foes="11110000000000000" cont="0"/>
        <request index="7"  response="11110000000000000" foes="11110000000000000" cont="0"/>
        <request index="8"  response="11110000000011111" foes="11110000000011111" cont="0"/>
        <request index="9"  response="11110000000011111" foes="11110000000011111" cont="0"/>
        <request index="10" response="00000000000000000" foes="00000000000011000" cont="0"/>
        <request index="11" response="00000000000000000" foes="00000000000011000" cont="0"/>
        <request index="12" response="00000000000000000" foes="00000000000011000" cont="0"/>
        <request index="13" response="00000000000000000" foes="00000001111111000" cont="0"/>
        <request index="14" response="00000000000000000" foes="00000001111111000" cont="0"/>
        <request index="15" response="00000000000000000" foes="00000001111111000" cont="0"/>
        <request index="16" response="00000000000000000" foes="00000001111111000" cont="0"/>
    </junction>
    <junction id="J1" type="traffic_light" x="115.00" y="100.00" incLanes="-E2_0 -E2_1 -E2_2 -E2_3 -E1_0 -E1_1 -E1_2 -E1_3 -E3_0 -E3_1 -E3_2 -E3_3 E0_0 E0_1 E0_2 E0_3" intLanes=":J1_0_0 :J1_1_0 :J1_1_1 :J1_1_2 :J1_1_3 :J1_28_0 :J1_6_0 :J1_6_1 :J1_8_0 :J1_8_1 :J1_8_2 :J1_8_3 :J1_29_0 :J1_30_0 :J1_14_0 :J1_15_0 :J1_15_1 :J1_15_2 :J1_15_3 :J1_31_0 :J1_20_0 :J1_20_1 :J1_22_0 :J1_22_1 :J1_22_2 :J1_22_3 :J1_32_0 :J1_33_0" shape="102.20,116.80 127.80,116.80 128.24,114.58 128.80,113.80 129.58,113.24 130.58,112.91 131.80,112.80 131.80,87.20 129.58,86.76 128.80,86.20 128.24,85.42 127.91,84.42 127.80,83.20 102.20,83.20 101.76,85.42 101.20,86.20 100.42,86.76 99.42,87.09 98.20,87.20 98.20,112.80 100.42,113.24 101.20,113.80 101.76,114.58 102.09,115.58">
        <request index="0"  response="0000000000000000000000000000" foes="0000000000000000111100000000" cont="0"/>
        <request index="1"  response="1100000000000011000000000000" foes="1111111110000011111100000000" cont="0"/>
        <request index="2"  response="1100000000000011000000000000" foes="1111111110000011111100000000" cont="0"/>