<?xml version="1.0" encoding="UTF-8"?>

<!-- generated on 2024-12-10 20:10:12 by Eclipse SUMO netedit Version 1.12.0
<configuration xmlns:xsi="http://www.w3.org/2001/XMLSchema-instance" xsi:noNamespaceSchemaLocation="http://sumo.dlr.de/xsd/netconvertConfiguration.xsd">

    <input>
        <sumo-net-file value="/home/shigen0/simulator/OpenCV2X/scenarios/numo/street.test.net.xml"/>
    </input>

    <output>
        <output-file value="/home/shigen0/simulator/OpenCV2X/scenarios/numo/street.test.net.xml"/>
    </output>

    <processing>
        <geometry.min-radius.fix.railways value="false"/>
        <geometry.max-grade.fix value="false"/>
        <offset.disable-normalization value="true"/>
        <lefthand value="false"/>
    </processing>

    <junctions>
        <no-internal-links value="true"/>
        <no-turnarounds value="true"/>
        <junctions.corner-detail value="5"/>
        <junctions.limit-turn-speed value="5.5"/>
        <rectangular-lane-cut value="false"/>
    </junctions>

    <pedestrian>
        <walkingareas value="false"/>
    </pedestrian>

    <report>
        <aggregate-warnings value="5"/>
    </report>

</configuration>
-->

<net version="1.9" junctionCornerDetail="5" limitTurnSpeed="5.50" xmlns:xsi="http://www.w3.org/2001/XMLSchema-instance" xsi:noNamespaceSchemaLocation="http://sumo.dlr.de/xsd/net_file.xsd">

    <location netOffset="0.00,0.00" convBoundary="-100.00,-10.00,600.00,10.00" origBoundary="-10000000000.00,-10000000000.00,10000000000.00,10000000000.00" projParameter="!"/>

    <edge id="-E0" from="J1" to="J0" priority="4">
        <lane id="-E0_0" index="0" speed="13.89" length="500.00" shape="497.55,8.00 2.45,8.00"/>
        <lane id="-E0_1" index="1" speed="13.89" length="500.00" shape="497.55,4.80 2.45,4.80"/>
        <lane id="-E0_2" index="2" speed="13.89" length="500.00" shape="497.55,1.60 2.45,1.60"/>
    </edge>
    <edge id="E0" from="J0" to="J1" priority="4">
        <lane id="E0_0" index="0" speed="13.89" length="500.00" shape="2.45,-8.00 497.55,-8.00"/>
        <lane id="E0_1" index="1" speed="13.89" length="500.00" shape="2.45,-4.80 497.55,-4.80"/>
        <lane id="E0_2" index="2" speed="13.89" length="500.00" shape="2.45,-1.60 497.55,-1.60"/>
    </edge>
    <edge id="E1" from="J1" to="J2" priority="-1">
        <lane id="E1_0" index="0" speed="13.89" length="50.99" shape="500.83,-8.33 548.43,-17.84"/>
        <lane id="E1_1" index="1" speed="13.89" length="50.99" shape="501.46,-5.19 549.06,-14.71"/>
        <lane id="E1_2" index="2" speed="13.89" length="50.99" shape="502.09,-2.05 549.69,-11.57"/>
    </edge>
    <edge id="E2" from="J2" to="J3" priority="-1">
        <lane id="E2_0" index="0" speed="13.89" length="50.99" shape="551.57,-17.84 601.57,-7.84"/>
        <lane id="E2_1" index="1" speed="13.89" length="50.99" shape="550.94,-14.71 600.94,-4.71"/>
        <lane id="E2_2" index="2" speed="13.89" length="50.99" shape="550.31,-11.57 600.31,-1.57"/>
    </edge>
    <edge id="E3" from="J3" to="J4" priority="-1">
        <lane id="E3_0" index="0" speed="13.89" length="50.99" shape="601.57,7.84 551.57,17.84"/>
        <lane id="E3_1" index="1" speed="13.89" length="50.99" shape="600.94,4.71 550.94,14.71"/>
        <lane id="E3_2" index="2" speed="13.89" length="50.99" shape="600.31,1.57 550.31,11.57"/>
    </edge>
    <edge id="E4" from="J4" to="J1" priority="-1">
        <lane id="E4_0" index="0" speed="13.89" length="50.99" shape="548.43,17.84 500.83,8.33"/>
        <lane id="E4_1" index="1" speed="13.89" length="50.99" shape="549.06,14.71 501.46,5.19"/>
        <lane id="E4_2" index="2" speed="13.89" length="50.99" shape="549.69,11.57 502.09,2.05"/>
    </edge>
    <edge id="E5" from="J0" to="J5" priority="-1">
        <lane id="E5_0" index="0" speed="13.89" length="50.99" shape="-0.83,8.33 -48.43,17.84"/>
        <lane id="E5_1" index="1" speed="13.89" length="50.99" shape="-1.46,5.19 -49.06,14.71"/>
        <lane id="E5_2" index="2" speed="13.89" length="50.99" shape="-2.09,2.05 -49.69,11.57"/>
    </edge>
    <edge id="E6" from="J5" to="J6" priority="-1">
        <lane id="E6_0" index="0" speed="13.89" length="50.99" shape="-51.57,17.84 -101.57,7.84"/>
        <lane id="E6_1" index="1" speed="13.89" length="50.99" shape="-50.94,14.71 -100.94,4.71"/>
        <lane id="E6_2" index="2" speed="13.89" length="50.99" shape="-50.31,11.57 -100.31,1.57"/>
    </edge>
    <edge id="E7" from="J6" to="J7" priority="-1">
        <lane id="E7_0" index="0" speed="13.89" length="50.99" shape="-101.57,-7.84 -51.57,-17.84"/>
        <lane id="E7_1" index="1" speed="13.89" length="50.99" shape="-100.94,-4.71 -50.94,-14.71"/>
        <lane id="E7_2" index="2" speed="13.89" length="50.99" shape="-100.31,-1.57 -50.31,-11.57"/>
    </edge>
    <edge id="E8" from="J7" to="J0" priority="-1">
        <lane id="E8_0" index="0" speed="13.89" length="50.99" shape="-48.43,-17.84 -0.83,-8.33"/>
        <lane id="E8_1" index="1" speed="13.89" length="50.99" shape="-49.06,-14.71 -1.46,-5.19"/>
        <lane id="E8_2" index="2" speed="13.89" length="50.99" shape="-49.69,-11.57 -2.09,-2.05"/>
    </edge>

    <junction id="J0" type="priority" x="0.00" y="0.00" incLanes="-E0_0 -E0_1 -E0_2 E8_0 E8_1 E8_2" intLanes="" shape="2.45,9.60 2.45,-9.60 1.34,-9.61 0.95,-9.64 0.57,-9.69 0.10,-9.77 -0.52,-9.89 -2.40,-0.48 -2.40,0.48 -0.52,9.89 0.57,9.69 0.95,9.64 1.34,9.61 1.81,9.60">
        <request index="0" response="00000000" foes="11000000"/>
        <request index="1" response="00000000" foes="11000000"/>
        <request index="2" response="00000000" foes="11000000"/>
        <request index="3" response="00000000" foes="00000000"/>
        <request index="4" response="00000000" foes="00000000"/>
        <request index="5" response="00000000" foes="00000000"/>
        <request index="6" response="00000111" foes="00000111"/>
        <request index="7" response="00000111" foes="00000111"/>
    </junction>
    <junction id="J1" type="priority" x="500.00" y="0.00" incLanes="E4_0 E4_1 E4_2 E0_0 E0_1 E0_2" intLanes="" shape="500.52,9.89 502.40,0.48 502.40,-0.48 500.52,-9.89 499.43,-9.69 499.05,-9.64 498.66,-9.61 498.19,-9.60 497.55,-9.60 497.55,9.60 498.66,9.61 499.05,9.64 499.43,9.69 499.90,9.77">
        <request index="0" response="00000000" foes="00000000"/>
        <request index="1" response="00000000" foes="00000000"/>
        <request index="2" response="00000000" foes="00000000"/>
        <request index="3" response="11100000" foes="11100000"/>
        <request index="4" response="11100000" foes="11100000"/>
        <request index="5" response="00000000" foes="00011000"/>
        <request index="6" response="00000000" foes="00011000"/>
        <request index="7" response="00000000" foes="00011000"/>
    </junction>
    <junction id="J2" type="priority" x="550.00" y="-10.00" incLanes="E1_0 E1_1 E1_2" intLanes="" shape="550.00,-10.00 551.88,-19.41 550.50,-19.66 550.00,-19.69 549.50,-19.66 548.91,-19.57 548.12,-19.41">
        <request index="0" response="000" foes="000"/>
        <request index="1" response="000" foes="000"/>
        <request index="2" response="000" foes="000"/>
    </junction>
    <junction id="J3" type="priority" x="600.00" y="0.00" incLanes="E2_0 E2_1 E2_2" intLanes="" shape="601.88,-9.41 600.00,0.00 601.88,9.41 614.96,6.28 622.80,3.14 625.42,0.00 622.80,-3.14 614.96,-6.28">
        <request index="0" response="000" foes="000"/>
        <request index="1" response="000" foes="000"/>
        <request index="2" response="000" foes="000"/>
    </junction>
    <junction id="J4" type="priority" x="550.00" y="10.00" incLanes="E3_0 E3_1 E3_2" intLanes="" shape="551.88,19.41 550.00,10.00 548.12,19.41 549.50,19.66 550.00,19.69 550.50,19.66 551.09,19.57">
        <request index="0" response="000" foes="000"/>
        <request index="1" response="000" foes="000"/>
        <request index="2" response="000" foes="000"/>
    </junction>
    <junction id="J5" type="priority" x="-50.00" y="10.00" incLanes="E5_0 E5_1 E5_2" intLanes="" shape="-48.12,19.41 -50.00,10.00 -51.88,19.41 -50.50,19.66 -50.00,19.69 -49.50,19.66 -48.91,19.57">
        <request index="0" response="000" foes="000"/>
        <request index="1" response="000" foes="000"/>
        <request index="2" response="000" foes="000"/>
    </junction>
    <junction id="J6" type="priority" x="-100.00" y="0.00" incLanes="E6_0 E6_1 E6_2" intLanes="" shape="-101.88,9.41 -100.00,0.00 -101.88,-9.41 -114.96,-6.28 -122.80,-3.14 -125.42,-0.00 -122.80,3.14 -114.96,6.28">
        <request index="0" response="000" foes="000"/>
        <request index="1" response="000" foes="000"/>
        <request index="2" response="000" foes="000"/>
    </junction>
    <junction id="J7" type="priority" x="-50.00" y="-10.00" incLanes="E7_0 E7_1 E7_2" intLanes="" shape="-50.00,-10.00 -48.12,-19.41 -49.50,-19.66 -50.00,-19.69 -50.50,-19.66 -51.09,-19.57 -51.88,-19.41">
        <request index="0" response="000" foes="000"/>
        <request index="1" response="000" foes="000"/>
        <request index="2" response="000" foes="000"/>
    </junction>

    <connection from="-E0" to="E5" fromLane="0" toLane="0" dir="s" state="M"/>
    <connection from="-E0" to="E5" fromLane="1" toLane="1" dir="s" state="M"/>
    <connection from="-E0" to="E5" fromLane="2" toLane="2" dir="s" state="M"/>
    <connection from="E0" to="E1" fromLane="0" toLane="0" dir="s" state="M"/>
    <connection from="E0" to="E1" fromLane="1" toLane="1" dir="s" state="M"/>
    <connection from="E0" to="E1" fromLane="2" toLane="2" dir="s" state="M"/>
    <connection from="E1" to="E2" fromLane="0" toLane="0" dir="s" state="M"/>
    <connection from="E1" to="E2" fromLane="1" toLane="1" dir="s" state="M"/>
    <connection from="E1" to="E2" fromLane="2" toLane="2" dir="s" state="M"/>
    <connection from="E2" to="E3" fromLane="0" toLane="0" dir="l" state="M"/>
    <connection from="E2" to="E3" fromLane="1" toLane="1" dir="l" state="M"/>
    <connection from="E2" to="E3" fromLane="2" toLane="2" dir="l" state="M"/>
    <connection from="E3" to="E4" fromLane="0" toLane="0" dir="s" state="M"/>
    <connection from="E3" to="E4" fromLane="1" toLane="1" dir="s" state="M"/>
    <connection from="E3" to="E4" fromLane="2" toLane="2" dir="s" state="M"/>
    <connection from="E4" to="-E0" fromLane="0" toLane="0" dir="s" state="M"/>
    <connection from="E4" to="-E0" fromLane="1" toLane="1" dir="s" state="M"/>
    <connection from="E4" to="-E0" fromLane="2" toLane="2" dir="s" state="M"/>
    <connection from="E4" to="E1" fromLane="2" toLane="1" dir="l" state="m"/>
    <connection from="E4" to="E1" fromLane="2" toLane="2" dir="l" state="m"/>
    <connection from="E5" to="E6" fromLane="0" toLane="0" dir="s" state="M"/>
    <connection from="E5" to="E6" fromLane="1" toLane="1" dir="s" state="M"/>
    <connection from="E5" to="E6" fromLane="2" toLane="2" dir="s" state="M"/>
    <connection from="E6" to="E7" fromLane="0" toLane="0" dir="l" state="M"/>
    <connection from="E6" to="E7" fromLane="1" toLane="1" dir="l" state="M"/>
    <connection from="E6" to="E7" fromLane="2" toLane="2" dir="l" state="M"/>
    <connection from="E7" to="E8" fromLane="0" toLane="0" dir="s" state="M"/>
    <connection from="E7" to="E8" fromLane="1" toLane="1" dir="s" state="M"/>
    <connection from="E7" to="E8" fromLane="2" toLane="2" dir="s" state="M"/>
    <connection from="E8" to="E0" fromLane="0" toLane="0" dir="s" state="M"/>
    <connection from="E8" to="E0" fromLane="1" toLane="1" dir="s" state="M"/>
    <connection from="E8" to="E0" fromLane="2" toLane="2" dir="s" state="M"/>
    <connection from="E8" to="E5" fromLane="2" toLane="1" dir="l" state="m"/>
    <connection from="E8" to="E5" fromLane="2" toLane="2" dir="l" state="m"/>

</net>
