<configuration>
	<input>
	    <step-length value="0.05"/>
		<net-file value="street.test.net.xml"/>
		<route-files value="street.test.rou.xml"/>
		
	</input>
</configuration>